/*---------------------------------------------------------------------------*\
| =========                 |                                                 |
| \\      /  F ield         | OpenFOAM: The Open Source CFD Toolbox           |
|  \\    /   O peration     | Version:  v1912                                 |
|   \\  /    A nd           | Website:  www.openfoam.com                      |
|    \\/     M anipulation  |                                                 |
\*---------------------------------------------------------------------------*/
Build  : _f3950763fe-20191219 OPENFOAM=1912
Arch   : "LSB;label=32;scalar=64"
Exec   : rhoPimpleAPIO_METRICS -parallel
Date   : Oct 27 2020
Time   : 20:37:08
Host   : r42c2t2n4
PID    : 137871
I/O    : uncollated
Case   : /lustre/cray/ws9/2/ws/hpcmcast-ashee2/HAWK/apio_256M/2048
nProcs : 2048
Hosts  :
(
    (r42c2t2n4 128)
    (r42c2t3n1 128)
    (r42c2t3n2 128)
    (r42c2t3n3 128)
    (r42c2t3n4 128)
    (r42c2t4n1 128)
    (r42c2t4n2 128)
    (r42c2t4n3 128)
    (r42c2t4n4 128)
    (r42c2t5n1 128)
    (r42c2t5n2 128)
    (r42c2t5n3 128)
    (r42c2t5n4 128)
    (r42c2t6n1 128)
    (r42c2t6n2 128)
    (r42c2t6n3 128)
)
Pstream initialized with:
    floatTransfer      : 0
    nProcsSimpleSum    : 0
    commsType          : nonBlocking
    polling iterations : 0
trapFpe: Floating point exception trapping enabled (FOAM_SIGFPE).
fileModificationChecking : Monitoring run-time modified files using timeStampMaster (fileModificationSkew 10)
allowSystemOperations : Allowing user-supplied system call operations

// * * * * * * * * * * * * * * * * * * * * * * * * * * * * * * * * * * * * * //
Create time

Create mesh for time = 0


PIMPLE: Operating solver in PISO mode

Reading thermophysical properties

Selecting thermodynamics package 
{
    type            hePsiThermo;
    mixture         pureMixture;
    transport       const;
    thermo          eConst;
    equationOfState perfectGas;
    specie          specie;
    energy          sensibleInternalEnergy;
}

Reading field U

Reading/calculating face flux field phi

--> FOAM Warning : 
    From function Foam::pressureControl::pressureControl(const volScalarField&, const volScalarField&, const Foam::dictionary&, bool)
    in file cfdTools/general/pressureControl/pressureControl.C at line 123
    Reading "/lustre/cray/ws9/2/ws/hpcmcast-ashee2/HAWK/apio_256M/2048/system/fvSolution.PIMPLE"
    'rhoMax' specified rather than 'pMax' or 'pMaxFactor'
    This is supported for backward-compatibility but 'pMax' or 'pMaxFactor' are more reliable.
--> FOAM Warning : 
    From function Foam::pressureControl::pressureControl(const volScalarField&, const volScalarField&, const Foam::dictionary&, bool)
    in file cfdTools/general/pressureControl/pressureControl.C at line 178
    Reading "/lustre/cray/ws9/2/ws/hpcmcast-ashee2/HAWK/apio_256M/2048/system/fvSolution.PIMPLE"
    'rhoMin' specified rather than 'pMin' or 'pMinFactor'
    This is supported for backward-compatibility but 'pMin' or 'pMinFactor' are more reliable.
pressureControl
    pMax 1726187.557059955
    pMin 4747.015781914877

Creating turbulence model

Selecting turbulence model type LES
Selecting LES turbulence model kEqn
Selecting LES delta type cubeRootVol
LES
{
    LESModel        kEqn;
    turbulence      on;
    printCoeffs     on;
    delta           cubeRootVol;
    cubeRootVolCoeffs
    {
        deltaCoeff      1;
    }
    PrandtlCoeffs
    {
        delta           cubeRootVol;
        cubeRootVolCoeffs
        {
            deltaCoeff      1;
        }
        smoothCoeffs
        {
            delta           cubeRootVol;
            cubeRootVolCoeffs
            {
                deltaCoeff      1;
            }
            maxDeltaRatio   1.1;
        }
        Cdelta          0.158;
    }
    vanDriestCoeffs
    {
        delta           cubeRootVol;
        cubeRootVolCoeffs
        {
            deltaCoeff      1;
        }
        smoothCoeffs
        {
            delta           cubeRootVol;
            cubeRootVolCoeffs
            {
                deltaCoeff      1;
            }
            maxDeltaRatio   1.1;
        }
        Aplus           26;
        Cdelta          0.158;
    }
    smoothCoeffs
    {
        delta           cubeRootVol;
        cubeRootVolCoeffs
        {
            deltaCoeff      1;
        }
        maxDeltaRatio   1.1;
    }
    Ce              1.048;
    Ck              0.094;
}

Creating field dpdt

Creating field kinetic energy K

No MRF models present

APIO_procNo = 18
writeThread 18 on CPU 146
APIO_procNo = 19
writeThread 19 on CPU 147
APIO_procNo = 20
writeThread 20 on CPU 148
APIO_procNo = 21
writeThread 21 on CPU 149
APIO_procNo = 22
writeThread 22 on CPU 150
APIO_procNo = 23
writeThread 23 on CPU 151
APIO_procNo = 24
writeThread 24 on CPU 152
APIO_procNo = 25
writeThread 25 on CPU 153
APIO_procNo = 26
writeThread 26 on CPU 154
APIO_procNo = 27
writeThread 27 on CPU 155
APIO_procNo = 28
writeThread 28 on CPU 156
APIO_procNo = 29
writeThread 29 on CPU 157
APIO_procNo = 30
writeThread 30 on CPU 158
APIO_procNo = 31
writeThread 31 on CPU 159
APIO_procNo = 32
writeThread 32 on CPU 160
APIO_procNo = 33
writeThread 33 on CPU 161
APIO_procNo = 34
writeThread 34 on CPU 162
APIO_procNo = 35
writeThread 35 on CPU 163
APIO_procNo = 36
writeThread 36 on CPU 164
APIO_procNo = 37
writeThread 37 on CPU 165
APIO_procNo = 38
writeThread 38 on CPU 166
APIO_procNo = 39
writeThread 39 on CPU 167
APIO_procNo = 40
writeThread 40 on CPU 168
APIO_procNo = 41
writeThread 41 on CPU 169
APIO_procNo = 42
writeThread 42 on CPU 170
APIO_procNo = 43
writeThread 43 on CPU 171
APIO_procNo = 44
writeThread 44 on CPU 172
APIO_procNo = 45
writeThread 45 on CPU 173
APIO_procNo = 46
APIO_procNo = 47
writeThread 47 on CPU 175
APIO_procNo = 48
writeThread 48 on CPU 176
APIO_procNo = 49
writeThread 49 on CPU 177
APIO_procNo = 50
writeThread 50 on CPU 178
APIO_procNo = 51
writeThread 51 on CPU 179
APIO_procNo = 52
writeThread 52 on CPU 180
APIO_procNo = 53
writeThread 53 on CPU 181
APIO_procNo = 54
writeThread 54 on CPU 182
APIO_procNo = 55
writeThread 55 on CPU 183
APIO_procNo = 56
writeThread 56 on CPU 184
APIO_procNo = 57
writeThread 57 on CPU 185
APIO_procNo = 58
writeThread 58 on CPU 186
APIO_procNo = 59
writeThread 59 on CPU 187
APIO_procNo = 60
writeThread 60 on CPU 188
APIO_procNo = 61
writeThread 61 on CPU 189
APIO_procNo = 62
writeThread 62 on CPU 190
APIO_procNo = 63
writeThread 63 on CPU 191
APIO_procNo = 64
writeThread 64 on CPU 192
APIO_procNo = 65
writeThread 65 on CPU 193
APIO_procNo = 66
writeThread 66 on CPU 194
APIO_procNo = 67
writeThread 67 on CPU 195
APIO_procNo = 68
writeThread 68 on CPU 196
APIO_procNo = 69
writeThread 69 on CPU 197
APIO_procNo = 70
writeThread 70 on CPU 198
APIO_procNo = 71
writeThread 71 on CPU 199
APIO_procNo = 72
writeThread 72 on CPU 200
APIO_procNo = 73
writeThread 73 on CPU 201
APIO_procNo = 74
writeThread 74 on CPU 202
APIO_procNo = 75
writeThread 75 on CPU 203
APIO_procNo = 76
writeThread 76 on CPU 204
APIO_procNo = 77
writeThread 77 on CPU 205
APIO_procNo = 78
writeThread 78 on CPU 206
APIO_procNo = 79
writeThread 79 on CPU 207
APIO_procNo = 80
writeThread 80 on CPU 208
APIO_procNo = 81
writeThread 81 on CPU 209
APIO_procNo = 82
writeThread 82 on CPU 210
APIO_procNo = 83
writeThread 83 on CPU 211
APIO_procNo = 84
writeThread 84 on CPU 212
APIO_procNo = 85
writeThread 85 on CPU 213
APIO_procNo = 86
writeThread 86 on CPU 214
APIO_procNo = 87
writeThread 87 on CPU 215
APIO_procNo = 88
writeThread 88 on CPU 216
APIO_procNo = 89
writeThread 89 on CPU 217
APIO_procNo = 90
writeThread 90 on CPU 218
APIO_procNo = 91
writeThread 91 on CPU 219
APIO_procNo = 92
writeThread 92 on CPU 220
APIO_procNo = 93
writeThread 93 on CPU 221
APIO_procNo = 94
writeThread 94 on CPU 222
APIO_procNo = 95
writeThread 95 on CPU 223
APIO_procNo = 96
writeThread 96 on CPU 224
APIO_procNo = 97
writeThread 97 on CPU 225
APIO_procNo = 98
writeThread 98 on CPU 226
APIO_procNo = 99
writeThread 99 on CPU 227
APIO_procNo = 100
writeThread 100 on CPU 228
APIO_procNo = 101
writeThread 101 on CPU 229
APIO_procNo = 102
writeThread 102 on CPU 230
APIO_procNo = 103
writeThread 103 on CPU 231
APIO_procNo = 104
writeThread 104 on CPU 232
APIO_procNo = 105
writeThread 105 on CPU 233
APIO_procNo = 106
writeThread 106 on CPU 234
APIO_procNo = 107
writeThread 107 on CPU 235
APIO_procNo = 108
writeThread 108 on CPU 236
APIO_procNo = 109
writeThread 109 on CPU 237
APIO_procNo = 110
writeThread 110 on CPU 238
APIO_procNo = 111
writeThread 111 on CPU 239
APIO_procNo = 112
writeThread 112 on CPU 240
APIO_procNo = 113
writeThread 113 on CPU 241
APIO_procNo = 114
writeThread 114 on CPU 242
APIO_procNo = 115
writeThread 115 on CPU 243
APIO_procNo = 116
writeThread 116 on CPU 244
APIO_procNo = 117
writeThread 117 on CPU 245
APIO_procNo = 118
writeThread 118 on CPU 246
APIO_procNo = 119
writeThread 119 on CPU 247
APIO_procNo = 120
writeThread 120 on CPU 248
APIO_procNo = 121
writeThread 121 on CPU 249
APIO_procNo = 122
writeThread 122 on CPU 250
APIO_procNo = 123
writeThread 123 on CPU 251
APIO_procNo = 124
writeThread 124 on CPU 252
APIO_procNo = 125
writeThread 125 on CPU 253
APIO_procNo = 126
writeThread 126 on CPU 254
APIO_procNo = 127
writeThread 127 on CPU 255
No finite volume options present
APIO_procNo = 0
APIO_masterNo = 0
writeThread 0 on CPU 128
APIO_procNo = 1
writeThread 1 on CPU 129
APIO_procNo = 2
writeThread 2 on CPU 130
APIO_procNo = 3
writeThread 3 on CPU 131
APIO_procNo = 4
writeThread 4 on CPU 132
APIO_procNo = 5
writeThread 5 on CPU 133
APIO_procNo = 6
writeThread 6 on CPU 134
APIO_procNo = 7
writeThread 7 on CPU 135
APIO_procNo = 8
writeThread 8 on CPU 136
APIO_procNo = 9
writeThread 9 on CPU 137
APIO_procNo = 10
writeThread 10 on CPU 138
APIO_procNo = 11
writeThread 11 on CPU 139
APIO_procNo = 12
writeThread 12 on CPU 140
APIO_procNo = 13
writeThread 13 on CPU 141
APIO_procNo = 14
writeThread 14 on CPU 142
APIO_procNo = 15
writeThread 15 on CPU 143
APIO_procNo = 16
writeThread 16 on CPU 144
APIO_procNo = 17
writeThread 17 on CPU 145
writeThread 46 on CPU 174
APIO_procNo = 384
APIO_procNo = 1152
APIO_procNo = 896
writeThread 896 on CPU 128
APIO_procNo = 768
writeThread 768 on CPU 128
APIO_procNo = 1536
writeThread 1536 on CPU 128
APIO_procNo = 1280
APIO_procNo = 128
APIO_procNo = 512
APIO_procNo = 385
APIO_procNo = 640
writeThread 640 on CPU 128
APIO_procNo = 1024
writeThread 1024 on CPU 128
APIO_procNo = 1792
APIO_procNo = 1153
APIO_procNo = 1920
APIO_procNo = 897
APIO_procNo = 1408
writeThread 1408 on CPU 128
APIO_procNo = 1537
APIO_procNo = 256
writeThread 256 on CPU 128
APIO_procNo = 1281
APIO_procNo = 129
APIO_procNo = 513
APIO_procNo = 386
APIO_procNo = 641
writeThread 641 on CPU 129
APIO_procNo = 1025
APIO_procNo = 1793
APIO_procNo = 1154
writeThread 1154 on CPU 130
APIO_procNo = 1921
APIO_procNo = 898
APIO_procNo = 769
writeThread 769 on CPU 129
APIO_procNo = 1409
writeThread 1409 on CPU 129
APIO_procNo = 1538
APIO_procNo = 257
writeThread 257 on CPU 129
APIO_procNo = 1282
APIO_procNo = 130
APIO_procNo = 514
APIO_procNo = 387
APIO_procNo = 642
writeThread 642 on CPU 130
APIO_procNo = 1026
APIO_procNo = 1794
APIO_procNo = 1155
APIO_procNo = 1922
APIO_procNo = 899
APIO_procNo = 770
writeThread 770 on CPU 130
APIO_procNo = 1410
writeThread 1410 on CPU 130
APIO_procNo = 1539
APIO_procNo = 258
writeThread 258 on CPU 130
APIO_procNo = 1283
APIO_procNo = 1664
writeThread 1664 on CPU 128
APIO_procNo = 131
APIO_procNo = 515
APIO_procNo = 388
APIO_procNo = 643
writeThread 643 on CPU 131
APIO_procNo = 1027
APIO_procNo = 1795
writeThread 1795 on CPU 131
APIO_procNo = 1156
APIO_procNo = 1923
APIO_procNo = 900
APIO_procNo = 771
writeThread 771 on CPU 131
APIO_procNo = 1411
writeThread 1411 on CPU 131
APIO_procNo = 1540
APIO_procNo = 259
APIO_procNo = 1284
APIO_procNo = 1665
writeThread 1665 on CPU 129
APIO_procNo = 132
APIO_procNo = 516
writeThread 516 on CPU 132
APIO_procNo = 389
APIO_procNo = 644
writeThread 644 on CPU 132
APIO_procNo = 1028
APIO_procNo = 1796
APIO_procNo = 1157
APIO_procNo = 1924
APIO_procNo = 901
APIO_procNo = 772
APIO_procNo = 1412
writeThread 1412 on CPU 132
APIO_procNo = 1541
APIO_procNo = 260
APIO_procNo = 1285
APIO_procNo = 1666
writeThread 1666 on CPU 130
APIO_procNo = 133
APIO_procNo = 517
APIO_procNo = 390
APIO_procNo = 645
APIO_procNo = 1029
APIO_procNo = 1797
APIO_procNo = 1158
APIO_procNo = 1925
APIO_procNo = 902
APIO_procNo = 773
writeThread 773 on CPU 133
APIO_procNo = 1413
writeThread 1413 on CPU 133
APIO_procNo = 1542
APIO_procNo = 261
APIO_procNo = 1286
APIO_procNo = 1667
writeThread 1667 on CPU 131
APIO_procNo = 134
APIO_procNo = 518
APIO_procNo = 391
APIO_procNo = 646
writeThread 646 on CPU 134
APIO_procNo = 1030
writeThread 1030 on CPU 134
APIO_procNo = 1798
APIO_procNo = 1159
APIO_procNo = 1926
APIO_procNo = 903
APIO_procNo = 774
writeThread 774 on CPU 134
APIO_procNo = 1414
writeThread 1414 on CPU 134
APIO_procNo = 1543
APIO_procNo = 262
APIO_procNo = 1287
APIO_procNo = 1668
writeThread 1668 on CPU 132
APIO_procNo = 135
APIO_procNo = 519
APIO_procNo = 392
APIO_procNo = 647
APIO_procNo = 1031
APIO_procNo = 1799
APIO_procNo = 1160
APIO_procNo = 1927
writeThread 1927 on CPU 135
APIO_procNo = 904
APIO_procNo = 775
writeThread 775 on CPU 135
APIO_procNo = 1415
writeThread 1415 on CPU 135
APIO_procNo = 1544
APIO_procNo = 263
APIO_procNo = 1288
APIO_procNo = 1669
writeThread 1669 on CPU 133
APIO_procNo = 136
APIO_procNo = 520
APIO_procNo = 393
APIO_procNo = 648
writeThread 648 on CPU 136
APIO_procNo = 1032
APIO_procNo = 1800
APIO_procNo = 1161
APIO_procNo = 1928
writeThread 1928 on CPU 136
APIO_procNo = 905
APIO_procNo = 776
writeThread 776 on CPU 136
APIO_procNo = 1416
writeThread 1416 on CPU 136
APIO_procNo = 1545
APIO_procNo = 264
APIO_procNo = 1289
APIO_procNo = 1670
writeThread 1670 on CPU 134
APIO_procNo = 137
APIO_procNo = 521
APIO_procNo = 394
APIO_procNo = 649
APIO_procNo = 1033
writeThread 1033 on CPU 137
APIO_procNo = 1801
APIO_procNo = 1162
APIO_procNo = 1929
writeThread 1929 on CPU 137
APIO_procNo = 777
writeThread 777 on CPU 137
APIO_procNo = 1417
APIO_procNo = 1546
APIO_procNo = 265
APIO_procNo = 1290
APIO_procNo = 1671
writeThread 1671 on CPU 135
APIO_procNo = 522
APIO_procNo = 395
APIO_procNo = 650
writeThread 650 on CPU 138
APIO_procNo = 1034
APIO_procNo = 1802
APIO_procNo = 1163
APIO_procNo = 1930
writeThread 1930 on CPU 138
APIO_procNo = 906
writeThread 906 on CPU 138
APIO_procNo = 778
writeThread 778 on CPU 138
APIO_procNo = 1418
APIO_procNo = 1547
APIO_procNo = 266
APIO_procNo = 1291
APIO_procNo = 1672
writeThread 1672 on CPU 136
APIO_procNo = 138
APIO_procNo = 523
APIO_procNo = 396
APIO_procNo = 651
writeThread 651 on CPU 139
APIO_procNo = 1035
APIO_procNo = 1803
APIO_procNo = 1164
writeThread 1164 on CPU 140
APIO_procNo = 1931
writeThread 1931 on CPU 139
APIO_procNo = 907
APIO_procNo = 779
writeThread 779 on CPU 139
APIO_procNo = 1419
writeThread 1419 on CPU 139
APIO_procNo = 1548
APIO_procNo = 267
APIO_procNo = 1292
APIO_procNo = 1673
writeThread 1673 on CPU 137
APIO_procNo = 139
APIO_procNo = 524
APIO_procNo = 397
APIO_procNo = 652
APIO_procNo = 1036
APIO_procNo = 1804
APIO_procNo = 1165
APIO_procNo = 1932
writeThread 1932 on CPU 140
APIO_procNo = 908
APIO_procNo = 780
writeThread 780 on CPU 140
APIO_procNo = 1420
writeThread 1420 on CPU 140
APIO_procNo = 1549
APIO_procNo = 268
APIO_procNo = 1293
APIO_procNo = 1674
writeThread 1674 on CPU 138
APIO_procNo = 140
writeThread 140 on CPU 140
APIO_procNo = 525
writeThread 525 on CPU 141
APIO_procNo = 398
APIO_procNo = 653
writeThread 653 on CPU 141
APIO_procNo = 1037
APIO_procNo = 1805
APIO_procNo = 1166
APIO_procNo = 1933
writeThread 1933 on CPU 141
APIO_procNo = 909
APIO_procNo = 781
writeThread 781 on CPU 141
APIO_procNo = 1421
writeThread 1421 on CPU 141
APIO_procNo = 1550
APIO_procNo = 269
APIO_procNo = 1294
APIO_procNo = 1675
writeThread 1675 on CPU 139
APIO_procNo = 141
writeThread 141 on CPU 141
APIO_procNo = 526
writeThread 526 on CPU 142
APIO_procNo = 399
APIO_procNo = 654
writeThread 654 on CPU 142
APIO_procNo = 1038
APIO_procNo = 1806
APIO_procNo = 1167
APIO_procNo = 1934
writeThread 1934 on CPU 142
APIO_procNo = 910
writeThread 910 on CPU 142
APIO_procNo = 782
writeThread 782 on CPU 142
APIO_procNo = 1422
writeThread 1422 on CPU 142
APIO_procNo = 1551
APIO_procNo = 270
APIO_procNo = 1295
APIO_procNo = 1676
writeThread 1676 on CPU 140
APIO_procNo = 142
APIO_procNo = 527
writeThread 527 on CPU 143
APIO_procNo = 400
writeThread 400 on CPU 144
APIO_procNo = 655
writeThread 655 on CPU 143
APIO_procNo = 1039
APIO_procNo = 1807
APIO_procNo = 1168
writeThread 1168 on CPU 144
APIO_procNo = 1935
writeThread 1935 on CPU 143
APIO_procNo = 911
APIO_procNo = 783
writeThread 783 on CPU 143
APIO_procNo = 1423
writeThread 1423 on CPU 143
APIO_procNo = 1552
writeThread 1552 on CPU 144
APIO_procNo = 271
APIO_procNo = 1296
writeThread 1296 on CPU 144
APIO_procNo = 1677
writeThread 1677 on CPU 141
APIO_procNo = 143
APIO_procNo = 528
APIO_procNo = 401
writeThread 401 on CPU 145
APIO_procNo = 656
APIO_procNo = 1040
writeThread 1040 on CPU 144
APIO_procNo = 1808
writeThread 1808 on CPU 144
APIO_procNo = 1169
APIO_procNo = 1936
writeThread 1936 on CPU 144
APIO_procNo = 912
APIO_procNo = 784
writeThread 784 on CPU 144
APIO_procNo = 1424
writeThread 1424 on CPU 144
APIO_procNo = 1553
writeThread 1553 on CPU 145
APIO_procNo = 272
writeThread 272 on CPU 144
APIO_procNo = 1297
writeThread 1297 on CPU 145
APIO_procNo = 1678
writeThread 1678 on CPU 142
APIO_procNo = 144
writeThread 144 on CPU 144
APIO_procNo = 529
APIO_procNo = 402
writeThread 402 on CPU 146
APIO_procNo = 657
APIO_procNo = 1041
APIO_procNo = 1809
writeThread 1809 on CPU 145
APIO_procNo = 1170
APIO_procNo = 1937
writeThread 1937 on CPU 145
APIO_procNo = 913
APIO_procNo = 785
writeThread 785 on CPU 145
APIO_procNo = 1425
writeThread 1425 on CPU 145
APIO_procNo = 1554
writeThread 1554 on CPU 146
APIO_procNo = 273
writeThread 273 on CPU 145
APIO_procNo = 1298
writeThread 1298 on CPU 146
APIO_procNo = 1679
writeThread 1679 on CPU 143
APIO_procNo = 145
writeThread 145 on CPU 145
APIO_procNo = 530
APIO_procNo = 403
writeThread 403 on CPU 147
APIO_procNo = 658
APIO_procNo = 1042
writeThread 1042 on CPU 146
APIO_procNo = 1810
writeThread 1810 on CPU 146
APIO_procNo = 1171
writeThread 1171 on CPU 147
APIO_procNo = 1938
writeThread 1938 on CPU 146
APIO_procNo = 914
APIO_procNo = 786
writeThread 786 on CPU 146
APIO_procNo = 1426
writeThread 1426 on CPU 146
APIO_procNo = 1555
writeThread 1555 on CPU 147
APIO_procNo = 274
writeThread 274 on CPU 146
APIO_procNo = 1299
writeThread 1299 on CPU 147
APIO_procNo = 1680
writeThread 1680 on CPU 144
APIO_procNo = 146
writeThread 146 on CPU 146
APIO_procNo = 531
APIO_procNo = 404
writeThread 404 on CPU 148
APIO_procNo = 659
APIO_procNo = 1043
writeThread 1043 on CPU 147
APIO_procNo = 1811
APIO_procNo = 1172
writeThread 1172 on CPU 148
APIO_procNo = 1939
APIO_procNo = 915
APIO_procNo = 787
writeThread 787 on CPU 147
APIO_procNo = 1427
writeThread 1427 on CPU 147
APIO_procNo = 1556
writeThread 1556 on CPU 148
APIO_procNo = 275
writeThread 275 on CPU 147
APIO_procNo = 1300
writeThread 1300 on CPU 148
APIO_procNo = 1681
writeThread 1681 on CPU 145
APIO_procNo = 147
writeThread 147 on CPU 147
APIO_procNo = 532
writeThread 532 on CPU 148
APIO_procNo = 405
APIO_procNo = 660
APIO_procNo = 1044
APIO_procNo = 1812
writeThread 1812 on CPU 148
APIO_procNo = 1173
writeThread 1173 on CPU 149
APIO_procNo = 1940
writeThread 1940 on CPU 148
APIO_procNo = 916
writeThread 916 on CPU 148
APIO_procNo = 788
APIO_procNo = 1428
writeThread 1428 on CPU 148
APIO_procNo = 1557
writeThread 1557 on CPU 149
APIO_procNo = 276
writeThread 276 on CPU 148
APIO_procNo = 1301
writeThread 1301 on CPU 149
APIO_procNo = 1682
writeThread 1682 on CPU 146
APIO_procNo = 148
writeThread 148 on CPU 148
APIO_procNo = 533
writeThread 533 on CPU 149
APIO_procNo = 406
APIO_procNo = 661
APIO_procNo = 1045
APIO_procNo = 1813
writeThread 1813 on CPU 149
APIO_procNo = 1174
writeThread 1174 on CPU 150
APIO_procNo = 1941
writeThread 1941 on CPU 149
APIO_procNo = 917
APIO_procNo = 789
APIO_procNo = 1429
writeThread 1429 on CPU 149
APIO_procNo = 1558
writeThread 1558 on CPU 150
APIO_procNo = 277
writeThread 277 on CPU 149
APIO_procNo = 1302
APIO_procNo = 1683
writeThread 1683 on CPU 147
APIO_procNo = 149
writeThread 149 on CPU 149
APIO_procNo = 534
writeThread 534 on CPU 150
APIO_procNo = 407
APIO_procNo = 662
APIO_procNo = 1046
APIO_procNo = 1814
writeThread 1814 on CPU 150
APIO_procNo = 1175
writeThread 1175 on CPU 151
APIO_procNo = 1942
writeThread 1942 on CPU 150
APIO_procNo = 918
APIO_procNo = 790
APIO_procNo = 1430
writeThread 1430 on CPU 150
APIO_procNo = 1559
writeThread 1559 on CPU 151
APIO_procNo = 278
writeThread 278 on CPU 150
APIO_procNo = 1303
writeThread 1303 on CPU 151
APIO_procNo = 1684
writeThread 1684 on CPU 148
APIO_procNo = 150
writeThread 150 on CPU 150
APIO_procNo = 535
writeThread 535 on CPU 151
APIO_procNo = 408
writeThread 408 on CPU 152
APIO_procNo = 663
APIO_procNo = 1047
APIO_procNo = 1815
writeThread 1815 on CPU 151
APIO_procNo = 1176
writeThread 1176 on CPU 152
APIO_procNo = 1943
writeThread 1943 on CPU 151
APIO_procNo = 919
APIO_procNo = 791
writeThread 791 on CPU 151
APIO_procNo = 1431
writeThread 1431 on CPU 151
APIO_procNo = 1560
writeThread 1560 on CPU 152
APIO_procNo = 279
writeThread 279 on CPU 151
APIO_procNo = 1304
writeThread 1304 on CPU 152
APIO_procNo = 1685
writeThread 1685 on CPU 149
APIO_procNo = 151
writeThread 151 on CPU 151
APIO_procNo = 536
writeThread 536 on CPU 152
APIO_procNo = 409
writeThread 409 on CPU 153
APIO_procNo = 664
APIO_procNo = 1048
writeThread 1048 on CPU 152
APIO_procNo = 1816
APIO_procNo = 1177
writeThread 1177 on CPU 153
APIO_procNo = 1944
writeThread 1944 on CPU 152
APIO_procNo = 920
APIO_procNo = 792
APIO_procNo = 1432
writeThread 1432 on CPU 152
APIO_procNo = 1561
writeThread 1561 on CPU 153
APIO_procNo = 280
writeThread 280 on CPU 152
APIO_procNo = 1305
writeThread 1305 on CPU 153
APIO_procNo = 1686
writeThread 1686 on CPU 150
APIO_procNo = 152
writeThread 152 on CPU 152
APIO_procNo = 537
writeThread 537 on CPU 153
APIO_procNo = 410
writeThread 410 on CPU 154
APIO_procNo = 665
APIO_procNo = 1049
writeThread 1049 on CPU 153
APIO_procNo = 1817
writeThread 1817 on CPU 153
APIO_procNo = 1178
writeThread 1178 on CPU 154
APIO_procNo = 1945
writeThread 1945 on CPU 153
APIO_procNo = 921
APIO_procNo = 793
APIO_procNo = 1433
writeThread 1433 on CPU 153
APIO_procNo = 1562
writeThread 1562 on CPU 154
APIO_procNo = 281
writeThread 281 on CPU 153
APIO_procNo = 1306
writeThread 1306 on CPU 154
APIO_procNo = 1687
writeThread 1687 on CPU 151
APIO_procNo = 153
writeThread 153 on CPU 153
APIO_procNo = 538
writeThread 538 on CPU 154
APIO_procNo = 411
writeThread 411 on CPU 155
APIO_procNo = 666
APIO_procNo = 1050
writeThread 1050 on CPU 154
APIO_procNo = 1818
writeThread 1818 on CPU 154
APIO_procNo = 1179
writeThread 1179 on CPU 155
APIO_procNo = 1946
writeThread 1946 on CPU 154
APIO_procNo = 922
APIO_procNo = 794
APIO_procNo = 1434
writeThread 1434 on CPU 154
APIO_procNo = 1563
writeThread 1563 on CPU 155
APIO_procNo = 282
writeThread 282 on CPU 154
APIO_procNo = 1307
writeThread 1307 on CPU 155
APIO_procNo = 1688
writeThread 1688 on CPU 152
APIO_procNo = 154
writeThread 154 on CPU 154
APIO_procNo = 539
writeThread 539 on CPU 155
APIO_procNo = 412
APIO_procNo = 667
APIO_procNo = 1051
writeThread 1051 on CPU 155
APIO_procNo = 1819
writeThread 1819 on CPU 155
APIO_procNo = 1180
writeThread 1180 on CPU 156
APIO_procNo = 1947
writeThread 1947 on CPU 155
APIO_procNo = 923
APIO_procNo = 795
APIO_procNo = 1435
writeThread 1435 on CPU 155
APIO_procNo = 1564
writeThread 1564 on CPU 156
APIO_procNo = 283
writeThread 283 on CPU 155
APIO_procNo = 1308
writeThread 1308 on CPU 156
APIO_procNo = 1689
writeThread 1689 on CPU 153
APIO_procNo = 155
writeThread 155 on CPU 155
APIO_procNo = 540
writeThread 540 on CPU 156
APIO_procNo = 413
APIO_procNo = 668
APIO_procNo = 1052
writeThread 1052 on CPU 156
APIO_procNo = 1820
writeThread 1820 on CPU 156
APIO_procNo = 1181
writeThread 1181 on CPU 157
APIO_procNo = 1948
writeThread 1948 on CPU 156
APIO_procNo = 924
APIO_procNo = 796
APIO_procNo = 1436
writeThread 1436 on CPU 156
APIO_procNo = 1565
writeThread 1565 on CPU 157
APIO_procNo = 284
writeThread 284 on CPU 156
APIO_procNo = 1309
writeThread 1309 on CPU 157
APIO_procNo = 1690
writeThread 1690 on CPU 154
APIO_procNo = 156
writeThread 156 on CPU 156
APIO_procNo = 541
writeThread 541 on CPU 157
APIO_procNo = 414
writeThread 414 on CPU 158
APIO_procNo = 669
APIO_procNo = 1053
writeThread 1053 on CPU 157
APIO_procNo = 1821
writeThread 1821 on CPU 157
APIO_procNo = 1182
writeThread 1182 on CPU 158
APIO_procNo = 1949
writeThread 1949 on CPU 157
APIO_procNo = 925
APIO_procNo = 797
APIO_procNo = 1437
writeThread 1437 on CPU 157
APIO_procNo = 1566
writeThread 1566 on CPU 158
APIO_procNo = 285
writeThread 285 on CPU 157
APIO_procNo = 1310
writeThread 1310 on CPU 158
APIO_procNo = 1691
writeThread 1691 on CPU 155
APIO_procNo = 157
writeThread 157 on CPU 157
APIO_procNo = 542
writeThread 542 on CPU 158
APIO_procNo = 415
writeThread 415 on CPU 159
APIO_procNo = 670
APIO_procNo = 1054
writeThread 1054 on CPU 158
APIO_procNo = 1822
APIO_procNo = 1183
writeThread 1183 on CPU 159
APIO_procNo = 1950
writeThread 1950 on CPU 158
APIO_procNo = 926
APIO_procNo = 798
APIO_procNo = 1438
writeThread 1438 on CPU 158
APIO_procNo = 1567
writeThread 1567 on CPU 159
APIO_procNo = 286
writeThread 286 on CPU 158
APIO_procNo = 1311
writeThread 1311 on CPU 159
APIO_procNo = 1692
writeThread 1692 on CPU 156
APIO_procNo = 158
writeThread 158 on CPU 158
APIO_procNo = 543
writeThread 543 on CPU 159
APIO_procNo = 416
writeThread 416 on CPU 160
APIO_procNo = 671
writeThread 671 on CPU 159
APIO_procNo = 1055
writeThread 1055 on CPU 159
APIO_procNo = 1823
writeThread 1823 on CPU 159
APIO_procNo = 1184
writeThread 1184 on CPU 160
APIO_procNo = 1951
writeThread 1951 on CPU 159
APIO_procNo = 927
APIO_procNo = 799
APIO_procNo = 1439
writeThread 1439 on CPU 159
APIO_procNo = 1568
writeThread 1568 on CPU 160
APIO_procNo = 287
writeThread 287 on CPU 159
APIO_procNo = 1312
writeThread 1312 on CPU 160
APIO_procNo = 1693
writeThread 1693 on CPU 157
APIO_procNo = 159
writeThread 159 on CPU 159
APIO_procNo = 544
APIO_procNo = 417
writeThread 417 on CPU 161
APIO_procNo = 672
APIO_procNo = 1056
writeThread 1056 on CPU 160
APIO_procNo = 1824
writeThread 1824 on CPU 160
APIO_procNo = 1185
writeThread 1185 on CPU 161
APIO_procNo = 1952
writeThread 1952 on CPU 160
APIO_procNo = 928
writeThread 928 on CPU 160
APIO_procNo = 800
APIO_procNo = 1440
writeThread 1440 on CPU 160
APIO_procNo = 1569
writeThread 1569 on CPU 161
APIO_procNo = 288
writeThread 288 on CPU 160
APIO_procNo = 1313
APIO_procNo = 1694
writeThread 1694 on CPU 158
APIO_procNo = 160
writeThread 160 on CPU 160
APIO_procNo = 545
writeThread 545 on CPU 161
APIO_procNo = 418
APIO_procNo = 673
APIO_procNo = 1057
writeThread 1057 on CPU 161
APIO_procNo = 1825
writeThread 1825 on CPU 161
APIO_procNo = 1186
writeThread 1186 on CPU 162
APIO_procNo = 1953
writeThread 1953 on CPU 161
APIO_procNo = 929
writeThread 929 on CPU 161
APIO_procNo = 801
APIO_procNo = 1441
writeThread 1441 on CPU 161
APIO_procNo = 1570
writeThread 1570 on CPU 162
APIO_procNo = 289
writeThread 289 on CPU 161
APIO_procNo = 1314
APIO_procNo = 1695
writeThread 1695 on CPU 159
APIO_procNo = 161
writeThread 161 on CPU 161
Courant Number mean: 5.192694825943195e-12 max: 2.085039370078741e-05
APIO_procNo = 546
writeThread 546 on CPU 162
APIO_procNo = 419
writeThread 419 on CPU 163
APIO_procNo = 674
APIO_procNo = 1058
writeThread 1058 on CPU 162
APIO_procNo = 1826
writeThread 1826 on CPU 162
APIO_procNo = 1187
writeThread 1187 on CPU 163
APIO_procNo = 1954
writeThread 1954 on CPU 162
APIO_procNo = 930
APIO_procNo = 802
APIO_procNo = 1442
writeThread 1442 on CPU 162
APIO_procNo = 1571
writeThread 1571 on CPU 163
APIO_procNo = 290
writeThread 290 on CPU 162
APIO_procNo = 1315
APIO_procNo = 1696
writeThread 1696 on CPU 160
APIO_procNo = 162
writeThread 162 on CPU 162
APIO_procNo = 547
writeThread 547 on CPU 163
APIO_procNo = 420
writeThread 420 on CPU 164
APIO_procNo = 675
APIO_procNo = 1059
writeThread 1059 on CPU 163
APIO_procNo = 1827
APIO_procNo = 1188
writeThread 1188 on CPU 164
APIO_procNo = 1955
writeThread 1955 on CPU 163
APIO_procNo = 931
APIO_procNo = 803
APIO_procNo = 1443
writeThread 1443 on CPU 163
APIO_procNo = 1572
writeThread 1572 on CPU 164
APIO_procNo = 291
writeThread 291 on CPU 163
APIO_procNo = 1316
APIO_procNo = 1697
writeThread 1697 on CPU 161
APIO_procNo = 163
writeThread 163 on CPU 163
APIO_procNo = 548
writeThread 548 on CPU 164
APIO_procNo = 421
writeThread 421 on CPU 165
APIO_procNo = 676
APIO_procNo = 1060
APIO_procNo = 1828
writeThread 1828 on CPU 164
APIO_procNo = 1189
writeThread 1189 on CPU 165
APIO_procNo = 1956
writeThread 1956 on CPU 164
APIO_procNo = 932
writeThread 932 on CPU 164
APIO_procNo = 804
APIO_procNo = 1444
writeThread 1444 on CPU 164
APIO_procNo = 1573
writeThread 1573 on CPU 165
APIO_procNo = 292
writeThread 292 on CPU 164
APIO_procNo = 1317
APIO_procNo = 1698
writeThread 1698 on CPU 162
APIO_procNo = 164
writeThread 164 on CPU 164
APIO_procNo = 549
writeThread 549 on CPU 165
APIO_procNo = 422
writeThread 422 on CPU 166
APIO_procNo = 677
APIO_procNo = 1061
writeThread 1061 on CPU 165
APIO_procNo = 1829
writeThread 1829 on CPU 165
APIO_procNo = 1190
writeThread 1190 on CPU 166
APIO_procNo = 1957
writeThread 1957 on CPU 165
APIO_procNo = 933
writeThread 933 on CPU 165
APIO_procNo = 805
APIO_procNo = 1445
writeThread 1445 on CPU 165
APIO_procNo = 1574
writeThread 1574 on CPU 166
APIO_procNo = 293
writeThread 293 on CPU 165
APIO_procNo = 1318
APIO_procNo = 1699
writeThread 1699 on CPU 163
APIO_procNo = 165
APIO_procNo = 550
writeThread 550 on CPU 166
APIO_procNo = 423
writeThread 423 on CPU 167
APIO_procNo = 678
writeThread 678 on CPU 166
APIO_procNo = 1062
writeThread 1062 on CPU 166
APIO_procNo = 1830
writeThread 1830 on CPU 166
APIO_procNo = 1191
writeThread 1191 on CPU 167
APIO_procNo = 1958
writeThread 1958 on CPU 166
APIO_procNo = 934
writeThread 934 on CPU 166
APIO_procNo = 806
APIO_procNo = 1446
writeThread 1446 on CPU 166
APIO_procNo = 1575
writeThread 1575 on CPU 167
APIO_procNo = 294
writeThread 294 on CPU 166
APIO_procNo = 1319
APIO_procNo = 1700
writeThread 1700 on CPU 164
APIO_procNo = 166
writeThread 166 on CPU 166
APIO_procNo = 551
writeThread 551 on CPU 167
APIO_procNo = 424
writeThread 424 on CPU 168
APIO_procNo = 679
writeThread 679 on CPU 167
APIO_procNo = 1063
writeThread 1063 on CPU 167
APIO_procNo = 1831
writeThread 1831 on CPU 167
APIO_procNo = 1192
APIO_procNo = 1959
writeThread 1959 on CPU 167
APIO_procNo = 935
writeThread 935 on CPU 167
APIO_procNo = 807
APIO_procNo = 1447
writeThread 1447 on CPU 167
APIO_procNo = 1576
APIO_procNo = 295
writeThread 295 on CPU 167
APIO_procNo = 1320
APIO_procNo = 1701
writeThread 1701 on CPU 165
APIO_procNo = 167
writeThread 167 on CPU 167
APIO_procNo = 552
writeThread 552 on CPU 168
APIO_procNo = 425
writeThread 425 on CPU 169
APIO_procNo = 680
writeThread 680 on CPU 168
APIO_procNo = 1064
writeThread 1064 on CPU 168
APIO_procNo = 1832
writeThread 1832 on CPU 168
APIO_procNo = 1193
writeThread 1193 on CPU 169
APIO_procNo = 1960
writeThread 1960 on CPU 168
APIO_procNo = 936
writeThread 936 on CPU 168
APIO_procNo = 808
APIO_procNo = 1448
writeThread 1448 on CPU 168
APIO_procNo = 1577
writeThread 1577 on CPU 169
APIO_procNo = 296
writeThread 296 on CPU 168
APIO_procNo = 1321
APIO_procNo = 1702
writeThread 1702 on CPU 166
APIO_procNo = 168
writeThread 168 on CPU 168
APIO_procNo = 553
writeThread 553 on CPU 169
APIO_procNo = 426
writeThread 426 on CPU 170
APIO_procNo = 681
writeThread 681 on CPU 169
APIO_procNo = 1065
writeThread 1065 on CPU 169
APIO_procNo = 1833
writeThread 1833 on CPU 169
APIO_procNo = 1194
writeThread 1194 on CPU 170
APIO_procNo = 1961
writeThread 1961 on CPU 169
APIO_procNo = 937
writeThread 937 on CPU 169
APIO_procNo = 809
APIO_procNo = 1449
writeThread 1449 on CPU 169
APIO_procNo = 1578
writeThread 1578 on CPU 170
APIO_procNo = 297
writeThread 297 on CPU 169
APIO_procNo = 1322
APIO_procNo = 1703
writeThread 1703 on CPU 167
APIO_procNo = 169
writeThread 169 on CPU 169
APIO_procNo = 554
writeThread 554 on CPU 170
APIO_procNo = 427
writeThread 427 on CPU 171
APIO_procNo = 682
writeThread 682 on CPU 170
APIO_procNo = 1066
writeThread 1066 on CPU 170
APIO_procNo = 1834
writeThread 1834 on CPU 170
APIO_procNo = 1195
writeThread 1195 on CPU 171
APIO_procNo = 1962
writeThread 1962 on CPU 170
APIO_procNo = 938
writeThread 938 on CPU 170
APIO_procNo = 810
APIO_procNo = 1450
writeThread 1450 on CPU 170
APIO_procNo = 1579
writeThread 1579 on CPU 171
APIO_procNo = 298
writeThread 298 on CPU 170
APIO_procNo = 1323
APIO_procNo = 1704
writeThread 1704 on CPU 168
APIO_procNo = 170
writeThread 170 on CPU 170
APIO_procNo = 555
writeThread 555 on CPU 171
APIO_procNo = 428
writeThread 428 on CPU 172
APIO_procNo = 683
writeThread 683 on CPU 171
APIO_procNo = 1067
writeThread 1067 on CPU 171
APIO_procNo = 1835
writeThread 1835 on CPU 171
APIO_procNo = 1196
writeThread 1196 on CPU 172
APIO_procNo = 1963
writeThread 1963 on CPU 171
APIO_procNo = 939
writeThread 939 on CPU 171
APIO_procNo = 811
APIO_procNo = 1451
writeThread 1451 on CPU 171
APIO_procNo = 1580
writeThread 1580 on CPU 172
APIO_procNo = 299
writeThread 299 on CPU 171
APIO_procNo = 1324
APIO_procNo = 1705
writeThread 1705 on CPU 169
APIO_procNo = 171
writeThread 171 on CPU 171
APIO_procNo = 556
writeThread 556 on CPU 172
APIO_procNo = 429
writeThread 429 on CPU 173
APIO_procNo = 684
writeThread 684 on CPU 172
APIO_procNo = 1068
writeThread 1068 on CPU 172
APIO_procNo = 1836
writeThread 1836 on CPU 172
APIO_procNo = 1197
writeThread 1197 on CPU 173
APIO_procNo = 1964
writeThread 1964 on CPU 172
APIO_procNo = 940
writeThread 940 on CPU 172
APIO_procNo = 812
APIO_procNo = 1452
writeThread 1452 on CPU 172
APIO_procNo = 1581
writeThread 1581 on CPU 173
APIO_procNo = 300
writeThread 300 on CPU 172
APIO_procNo = 1325
APIO_procNo = 1706
writeThread 1706 on CPU 170
APIO_procNo = 172
writeThread 172 on CPU 172
APIO_procNo = 557
writeThread 557 on CPU 173
APIO_procNo = 430
writeThread 430 on CPU 174
APIO_procNo = 685
writeThread 685 on CPU 173
APIO_procNo = 1069
writeThread 1069 on CPU 173
APIO_procNo = 1837
writeThread 1837 on CPU 173
APIO_procNo = 1198
writeThread 1198 on CPU 174
APIO_procNo = 1965
writeThread 1965 on CPU 173
APIO_procNo = 941
writeThread 941 on CPU 173
APIO_procNo = 813
APIO_procNo = 1453
writeThread 1453 on CPU 173
APIO_procNo = 1582
writeThread 1582 on CPU 174
APIO_procNo = 301
writeThread 301 on CPU 173
APIO_procNo = 1326
writeThread 1326 on CPU 174
APIO_procNo = 1707
writeThread 1707 on CPU 171
APIO_procNo = 173
writeThread 173 on CPU 173
APIO_procNo = 558
writeThread 558 on CPU 174
APIO_procNo = 431
writeThread 431 on CPU 175
APIO_procNo = 686
writeThread 686 on CPU 174
APIO_procNo = 1070
writeThread 1070 on CPU 174
APIO_procNo = 1838
writeThread 1838 on CPU 174
APIO_procNo = 1199
writeThread 1199 on CPU 175
APIO_procNo = 1966
writeThread 1966 on CPU 174
APIO_procNo = 942
writeThread 942 on CPU 174
APIO_procNo = 814
APIO_procNo = 1454
writeThread 1454 on CPU 174
APIO_procNo = 1583
writeThread 1583 on CPU 175
APIO_procNo = 302
writeThread 302 on CPU 174
APIO_procNo = 1327
APIO_procNo = 1708
writeThread 1708 on CPU 172
APIO_procNo = 174
writeThread 174 on CPU 174
APIO_procNo = 559
writeThread 559 on CPU 175
APIO_procNo = 432
writeThread 432 on CPU 176
APIO_procNo = 687
writeThread 687 on CPU 175
APIO_procNo = 1071
writeThread 1071 on CPU 175
APIO_procNo = 1839
writeThread 1839 on CPU 175
APIO_procNo = 1200
writeThread 1200 on CPU 176
APIO_procNo = 1967
writeThread 1967 on CPU 175
APIO_procNo = 943
writeThread 943 on CPU 175
APIO_procNo = 815
APIO_procNo = 1455
writeThread 1455 on CPU 175
APIO_procNo = 1584
writeThread 1584 on CPU 176
APIO_procNo = 303
writeThread 303 on CPU 175
APIO_procNo = 1328
APIO_procNo = 1709
writeThread 1709 on CPU 173
APIO_procNo = 175
writeThread 175 on CPU 175
APIO_procNo = 560
writeThread 560 on CPU 176
APIO_procNo = 433
writeThread 433 on CPU 177
APIO_procNo = 688
writeThread 688 on CPU 176
APIO_procNo = 1072
writeThread 1072 on CPU 176
APIO_procNo = 1840
writeThread 1840 on CPU 176
APIO_procNo = 1201
writeThread 1201 on CPU 177
APIO_procNo = 1968
writeThread 1968 on CPU 176
APIO_procNo = 944
writeThread 944 on CPU 176
APIO_procNo = 816
writeThread 816 on CPU 176
APIO_procNo = 1456
writeThread 1456 on CPU 176
APIO_procNo = 1585
writeThread 1585 on CPU 177
APIO_procNo = 304
writeThread 304 on CPU 176
APIO_procNo = 1329
APIO_procNo = 1710
writeThread 1710 on CPU 174
APIO_procNo = 176
writeThread 176 on CPU 176
APIO_procNo = 561
writeThread 561 on CPU 177
APIO_procNo = 434
writeThread 434 on CPU 178
APIO_procNo = 689
writeThread 689 on CPU 177
APIO_procNo = 1073
writeThread 1073 on CPU 177
APIO_procNo = 1841
writeThread 1841 on CPU 177
APIO_procNo = 1202
writeThread 1202 on CPU 178
APIO_procNo = 1969
writeThread 1969 on CPU 177
APIO_procNo = 945
writeThread 945 on CPU 177
APIO_procNo = 817
writeThread 817 on CPU 177
APIO_procNo = 1457
writeThread 1457 on CPU 177
APIO_procNo = 1586
writeThread 1586 on CPU 178
APIO_procNo = 305
writeThread 305 on CPU 177
APIO_procNo = 1330
APIO_procNo = 1711
writeThread 1711 on CPU 175
APIO_procNo = 177
writeThread 177 on CPU 177
APIO_procNo = 562
writeThread 562 on CPU 178
APIO_procNo = 435
writeThread 435 on CPU 179
APIO_procNo = 690
writeThread 690 on CPU 178
APIO_procNo = 1074
writeThread 1074 on CPU 178
APIO_procNo = 1842
writeThread 1842 on CPU 178
APIO_procNo = 1203
writeThread 1203 on CPU 179
APIO_procNo = 1970
writeThread 1970 on CPU 178
APIO_procNo = 946
writeThread 946 on CPU 178
APIO_procNo = 818
writeThread 818 on CPU 178
APIO_procNo = 1458
writeThread 1458 on CPU 178
APIO_procNo = 1587
writeThread 1587 on CPU 179
APIO_procNo = 306
writeThread 306 on CPU 178
APIO_procNo = 1331
APIO_procNo = 1712
writeThread 1712 on CPU 176
APIO_procNo = 178
writeThread 178 on CPU 178
APIO_procNo = 563
writeThread 563 on CPU 179
APIO_procNo = 436
writeThread 436 on CPU 180
APIO_procNo = 691
writeThread 691 on CPU 179
APIO_procNo = 1075
writeThread 1075 on CPU 179
APIO_procNo = 1843
writeThread 1843 on CPU 179
APIO_procNo = 1204
writeThread 1204 on CPU 180
APIO_procNo = 1971
writeThread 1971 on CPU 179
APIO_procNo = 947
writeThread 947 on CPU 179
APIO_procNo = 819
writeThread 819 on CPU 179
APIO_procNo = 1459
writeThread 1459 on CPU 179
APIO_procNo = 1588
writeThread 1588 on CPU 180
APIO_procNo = 307
writeThread 307 on CPU 179
APIO_procNo = 1332
writeThread 1332 on CPU 180
APIO_procNo = 1713
writeThread 1713 on CPU 177
APIO_procNo = 179
writeThread 179 on CPU 179
APIO_procNo = 564
writeThread 564 on CPU 180
APIO_procNo = 437
writeThread 437 on CPU 181
APIO_procNo = 692
writeThread 692 on CPU 180
APIO_procNo = 1076
writeThread 1076 on CPU 180
APIO_procNo = 1844
writeThread 1844 on CPU 180
APIO_procNo = 1205
writeThread 1205 on CPU 181
APIO_procNo = 1972
writeThread 1972 on CPU 180
APIO_procNo = 948
writeThread 948 on CPU 180
APIO_procNo = 820
writeThread 820 on CPU 180
APIO_procNo = 1460
writeThread 1460 on CPU 180
APIO_procNo = 1589
writeThread 1589 on CPU 181
APIO_procNo = 308
writeThread 308 on CPU 180
APIO_procNo = 1333
writeThread 1333 on CPU 181
APIO_procNo = 1714
writeThread 1714 on CPU 178
APIO_procNo = 180
writeThread 180 on CPU 180
APIO_procNo = 565
writeThread 565 on CPU 181
APIO_procNo = 438
writeThread 438 on CPU 182
APIO_procNo = 693
writeThread 693 on CPU 181
APIO_procNo = 1077
writeThread 1077 on CPU 181
APIO_procNo = 1845
writeThread 1845 on CPU 181
APIO_procNo = 1206
writeThread 1206 on CPU 182
APIO_procNo = 1973
writeThread 1973 on CPU 181
APIO_procNo = 949
writeThread 949 on CPU 181
APIO_procNo = 821
writeThread 821 on CPU 181
APIO_procNo = 1461
writeThread 1461 on CPU 181
APIO_procNo = 1590
writeThread 1590 on CPU 182
APIO_procNo = 309
writeThread 309 on CPU 181
APIO_procNo = 1334
writeThread 1334 on CPU 182
APIO_procNo = 1715
writeThread 1715 on CPU 179
APIO_procNo = 181
writeThread 181 on CPU 181
APIO_procNo = 566
writeThread 566 on CPU 182
APIO_procNo = 439
writeThread 439 on CPU 183
APIO_procNo = 694
writeThread 694 on CPU 182
APIO_procNo = 1078
writeThread 1078 on CPU 182
APIO_procNo = 1846
writeThread 1846 on CPU 182
APIO_procNo = 1207
writeThread 1207 on CPU 183
APIO_procNo = 1974
writeThread 1974 on CPU 182
APIO_procNo = 950
writeThread 950 on CPU 182
APIO_procNo = 822
writeThread 822 on CPU 182
APIO_procNo = 1462
writeThread 1462 on CPU 182
APIO_procNo = 1591
writeThread 1591 on CPU 183
APIO_procNo = 310
writeThread 310 on CPU 182
APIO_procNo = 1335
writeThread 1335 on CPU 183
APIO_procNo = 1716
writeThread 1716 on CPU 180
APIO_procNo = 182
writeThread 182 on CPU 182
APIO_procNo = 567
writeThread 567 on CPU 183
APIO_procNo = 440
writeThread 440 on CPU 184
APIO_procNo = 695
writeThread 695 on CPU 183
APIO_procNo = 1079
writeThread 1079 on CPU 183
APIO_procNo = 1847
writeThread 1847 on CPU 183
APIO_procNo = 1208
writeThread 1208 on CPU 184
APIO_procNo = 1975
writeThread 1975 on CPU 183
APIO_procNo = 951
writeThread 951 on CPU 183
APIO_procNo = 823
writeThread 823 on CPU 183
APIO_procNo = 1463
writeThread 1463 on CPU 183
APIO_procNo = 1592
writeThread 1592 on CPU 184
APIO_procNo = 311
writeThread 311 on CPU 183
APIO_procNo = 1336
writeThread 1336 on CPU 184
APIO_procNo = 1717
writeThread 1717 on CPU 181
APIO_procNo = 183
writeThread 183 on CPU 183
APIO_procNo = 568
writeThread 568 on CPU 184
APIO_procNo = 441
writeThread 441 on CPU 185
APIO_procNo = 696
writeThread 696 on CPU 184
APIO_procNo = 1080
writeThread 1080 on CPU 184
APIO_procNo = 1848
writeThread 1848 on CPU 184
APIO_procNo = 1209
writeThread 1209 on CPU 185
APIO_procNo = 1976
writeThread 1976 on CPU 184
APIO_procNo = 952
writeThread 952 on CPU 184
APIO_procNo = 824
writeThread 824 on CPU 184
APIO_procNo = 1464
writeThread 1464 on CPU 184
APIO_procNo = 1593
writeThread 1593 on CPU 185
APIO_procNo = 312
writeThread 312 on CPU 184
APIO_procNo = 1337
writeThread 1337 on CPU 185
APIO_procNo = 1718
writeThread 1718 on CPU 182
APIO_procNo = 184
writeThread 184 on CPU 184
APIO_procNo = 569
writeThread 569 on CPU 185
APIO_procNo = 442
writeThread 442 on CPU 186
APIO_procNo = 697
writeThread 697 on CPU 185
APIO_procNo = 1081
writeThread 1081 on CPU 185
APIO_procNo = 1849
writeThread 1849 on CPU 185
APIO_procNo = 1210
writeThread 1210 on CPU 186
APIO_procNo = 1977
writeThread 1977 on CPU 185
APIO_procNo = 953
writeThread 953 on CPU 185
APIO_procNo = 825
writeThread 825 on CPU 185
APIO_procNo = 1465
writeThread 1465 on CPU 185
APIO_procNo = 1594
writeThread 1594 on CPU 186
APIO_procNo = 313
writeThread 313 on CPU 185
APIO_procNo = 1338
writeThread 1338 on CPU 186
APIO_procNo = 1719
writeThread 1719 on CPU 183
APIO_procNo = 185
writeThread 185 on CPU 185
APIO_procNo = 570
writeThread 570 on CPU 186
APIO_procNo = 443
writeThread 443 on CPU 187
APIO_procNo = 698
writeThread 698 on CPU 186
APIO_procNo = 1082
writeThread 1082 on CPU 186
APIO_procNo = 1850
writeThread 1850 on CPU 186
APIO_procNo = 1211
writeThread 1211 on CPU 187
APIO_procNo = 1978
writeThread 1978 on CPU 186
APIO_procNo = 954
writeThread 954 on CPU 186
APIO_procNo = 826
writeThread 826 on CPU 186
APIO_procNo = 1466
writeThread 1466 on CPU 186
APIO_procNo = 1595
writeThread 1595 on CPU 187
APIO_procNo = 314
writeThread 314 on CPU 186
APIO_procNo = 1339
writeThread 1339 on CPU 187
APIO_procNo = 1720
writeThread 1720 on CPU 184
APIO_procNo = 186
writeThread 186 on CPU 186
APIO_procNo = 571
writeThread 571 on CPU 187
APIO_procNo = 444
writeThread 444 on CPU 188
APIO_procNo = 699
writeThread 699 on CPU 187
APIO_procNo = 1083
writeThread 1083 on CPU 187
APIO_procNo = 1851
writeThread 1851 on CPU 187
APIO_procNo = 1212
writeThread 1212 on CPU 188
APIO_procNo = 1979
writeThread 1979 on CPU 187
APIO_procNo = 955
writeThread 955 on CPU 187
APIO_procNo = 827
writeThread 827 on CPU 187
APIO_procNo = 1467
writeThread 1467 on CPU 187
APIO_procNo = 1596
writeThread 1596 on CPU 188
APIO_procNo = 315
writeThread 315 on CPU 187
APIO_procNo = 1340
writeThread 1340 on CPU 188
APIO_procNo = 1721
writeThread 1721 on CPU 185
APIO_procNo = 187
writeThread 187 on CPU 187
APIO_procNo = 572
writeThread 572 on CPU 188
APIO_procNo = 445
writeThread 445 on CPU 189
APIO_procNo = 700
writeThread 700 on CPU 188
APIO_procNo = 1084
writeThread 1084 on CPU 188
APIO_procNo = 1852
writeThread 1852 on CPU 188
APIO_procNo = 1213
writeThread 1213 on CPU 189
APIO_procNo = 1980
writeThread 1980 on CPU 188
APIO_procNo = 956
writeThread 956 on CPU 188
APIO_procNo = 828
writeThread 828 on CPU 188
APIO_procNo = 1468
writeThread 1468 on CPU 188
APIO_procNo = 1597
writeThread 1597 on CPU 189
APIO_procNo = 316
writeThread 316 on CPU 188
APIO_procNo = 1341
writeThread 1341 on CPU 189
APIO_procNo = 1722
writeThread 1722 on CPU 186
APIO_procNo = 188
writeThread 188 on CPU 188
APIO_procNo = 573
writeThread 573 on CPU 189
APIO_procNo = 446
writeThread 446 on CPU 190
APIO_procNo = 701
writeThread 701 on CPU 189
APIO_procNo = 1085
writeThread 1085 on CPU 189
APIO_procNo = 1853
writeThread 1853 on CPU 189
APIO_procNo = 1214
writeThread 1214 on CPU 190
APIO_procNo = 1981
writeThread 1981 on CPU 189
APIO_procNo = 957
writeThread 957 on CPU 189
APIO_procNo = 829
writeThread 829 on CPU 189
APIO_procNo = 1469
writeThread 1469 on CPU 189
APIO_procNo = 1598
writeThread 1598 on CPU 190
APIO_procNo = 317
writeThread 317 on CPU 189
APIO_procNo = 1342
writeThread 1342 on CPU 190
APIO_procNo = 1723
writeThread 1723 on CPU 187
APIO_procNo = 189
writeThread 189 on CPU 189
APIO_procNo = 574
writeThread 574 on CPU 190
APIO_procNo = 447
writeThread 447 on CPU 191
APIO_procNo = 702
writeThread 702 on CPU 190
APIO_procNo = 1086
writeThread 1086 on CPU 190
APIO_procNo = 1854
writeThread 1854 on CPU 190
APIO_procNo = 1215
writeThread 1215 on CPU 191
APIO_procNo = 1982
writeThread 1982 on CPU 190
APIO_procNo = 958
writeThread 958 on CPU 190
APIO_procNo = 830
writeThread 830 on CPU 190
APIO_procNo = 1470
APIO_procNo = 1599
writeThread 1599 on CPU 191
APIO_procNo = 318
writeThread 318 on CPU 190
APIO_procNo = 1343
writeThread 1343 on CPU 191
APIO_procNo = 1724
writeThread 1724 on CPU 188
APIO_procNo = 190
writeThread 190 on CPU 190
APIO_procNo = 575
writeThread 575 on CPU 191
APIO_procNo = 448
writeThread 448 on CPU 192
APIO_procNo = 703
writeThread 703 on CPU 191
APIO_procNo = 1087
writeThread 1087 on CPU 191
APIO_procNo = 1855
writeThread 1855 on CPU 191
APIO_procNo = 1216
writeThread 1216 on CPU 192
APIO_procNo = 1983
writeThread 1983 on CPU 191
APIO_procNo = 959
writeThread 959 on CPU 191
APIO_procNo = 831
writeThread 831 on CPU 191
APIO_procNo = 1471
writeThread 1471 on CPU 191
APIO_procNo = 1600
writeThread 1600 on CPU 192
APIO_procNo = 319
writeThread 319 on CPU 191
APIO_procNo = 1344
writeThread 1344 on CPU 192
APIO_procNo = 1725
writeThread 1725 on CPU 189
APIO_procNo = 191
writeThread 191 on CPU 191
APIO_procNo = 576
writeThread 576 on CPU 192
APIO_procNo = 449
writeThread 449 on CPU 193
APIO_procNo = 704
writeThread 704 on CPU 192
APIO_procNo = 1088
APIO_procNo = 1856
writeThread 1856 on CPU 192
APIO_procNo = 1217
writeThread 1217 on CPU 193
APIO_procNo = 1984
writeThread 1984 on CPU 192
APIO_procNo = 960
writeThread 960 on CPU 192
APIO_procNo = 832
APIO_procNo = 1472
writeThread 1472 on CPU 192
APIO_procNo = 1601
APIO_procNo = 320
writeThread 320 on CPU 192
APIO_procNo = 1345
writeThread 1345 on CPU 193
APIO_procNo = 1726
writeThread 1726 on CPU 190
APIO_procNo = 192
writeThread 192 on CPU 192
APIO_procNo = 577
writeThread 577 on CPU 193
APIO_procNo = 450
writeThread 450 on CPU 194
APIO_procNo = 705
writeThread 705 on CPU 193
APIO_procNo = 1089
writeThread 1089 on CPU 193
APIO_procNo = 1857
writeThread 1857 on CPU 193
APIO_procNo = 1218
writeThread 1218 on CPU 194
APIO_procNo = 1985
writeThread 1985 on CPU 193
APIO_procNo = 961
writeThread 961 on CPU 193
APIO_procNo = 833
writeThread 833 on CPU 193
APIO_procNo = 1473
writeThread 1473 on CPU 193
APIO_procNo = 1602
APIO_procNo = 321
writeThread 321 on CPU 193
APIO_procNo = 1346
writeThread 1346 on CPU 194
APIO_procNo = 1727
writeThread 1727 on CPU 191
APIO_procNo = 193
APIO_procNo = 578
writeThread 578 on CPU 194
APIO_procNo = 451
writeThread 451 on CPU 195
APIO_procNo = 706
writeThread 706 on CPU 194
APIO_procNo = 1090
writeThread 1090 on CPU 194
APIO_procNo = 1858
writeThread 1858 on CPU 194
APIO_procNo = 1219
writeThread 1219 on CPU 195
APIO_procNo = 1986
writeThread 1986 on CPU 194
APIO_procNo = 962
writeThread 962 on CPU 194
APIO_procNo = 834
APIO_procNo = 1474
writeThread 1474 on CPU 194
APIO_procNo = 1603
APIO_procNo = 322
writeThread 322 on CPU 194
APIO_procNo = 1347
writeThread 1347 on CPU 195
APIO_procNo = 1728
writeThread 1728 on CPU 192
APIO_procNo = 194
APIO_procNo = 579
writeThread 579 on CPU 195
APIO_procNo = 452
writeThread 452 on CPU 196
APIO_procNo = 707
writeThread 707 on CPU 195
APIO_procNo = 1091
writeThread 1091 on CPU 195
APIO_procNo = 1859
writeThread 1859 on CPU 195
APIO_procNo = 1220
writeThread 1220 on CPU 196
APIO_procNo = 1987
writeThread 1987 on CPU 195
APIO_procNo = 963
APIO_procNo = 835
writeThread 835 on CPU 195
APIO_procNo = 1475
writeThread 1475 on CPU 195
APIO_procNo = 1604
APIO_procNo = 323
writeThread 323 on CPU 195
APIO_procNo = 1348
writeThread 1348 on CPU 196
APIO_procNo = 1729
writeThread 1729 on CPU 193
APIO_procNo = 195
APIO_procNo = 580
writeThread 580 on CPU 196
APIO_procNo = 453
writeThread 453 on CPU 197
APIO_procNo = 708
writeThread 708 on CPU 196
APIO_procNo = 1092
writeThread 1092 on CPU 196
APIO_procNo = 1860
writeThread 1860 on CPU 196
APIO_procNo = 1221
writeThread 1221 on CPU 197
APIO_procNo = 1988
writeThread 1988 on CPU 196
APIO_procNo = 964
writeThread 964 on CPU 196
APIO_procNo = 836
APIO_procNo = 1476
writeThread 1476 on CPU 196
APIO_procNo = 1605
APIO_procNo = 324
writeThread 324 on CPU 196
APIO_procNo = 1349
writeThread 1349 on CPU 197
APIO_procNo = 1730
writeThread 1730 on CPU 194
APIO_procNo = 196
APIO_procNo = 581
writeThread 581 on CPU 197
APIO_procNo = 454
writeThread 454 on CPU 198
APIO_procNo = 709
writeThread 709 on CPU 197
APIO_procNo = 1093
writeThread 1093 on CPU 197
APIO_procNo = 1861
writeThread 1861 on CPU 197
APIO_procNo = 1222
writeThread 1222 on CPU 198
APIO_procNo = 1989
writeThread 1989 on CPU 197
APIO_procNo = 965
writeThread 965 on CPU 197
APIO_procNo = 837
APIO_procNo = 1477
writeThread 1477 on CPU 197
APIO_procNo = 1606
APIO_procNo = 325
writeThread 325 on CPU 197
APIO_procNo = 1350
writeThread 1350 on CPU 198
APIO_procNo = 1731
writeThread 1731 on CPU 195
APIO_procNo = 197
APIO_procNo = 582
writeThread 582 on CPU 198
APIO_procNo = 455
writeThread 455 on CPU 199
APIO_procNo = 710
writeThread 710 on CPU 198
APIO_procNo = 1094
writeThread 1094 on CPU 198
APIO_procNo = 1862
writeThread 1862 on CPU 198
APIO_procNo = 1223
writeThread 1223 on CPU 199
APIO_procNo = 1990
writeThread 1990 on CPU 198
APIO_procNo = 966
writeThread 966 on CPU 198
APIO_procNo = 838
APIO_procNo = 1478
writeThread 1478 on CPU 198
APIO_procNo = 1607
APIO_procNo = 326
writeThread 326 on CPU 198
APIO_procNo = 1351
writeThread 1351 on CPU 199
APIO_procNo = 1732
writeThread 1732 on CPU 196
APIO_procNo = 198
APIO_procNo = 583
writeThread 583 on CPU 199
APIO_procNo = 456
writeThread 456 on CPU 200
APIO_procNo = 711
writeThread 711 on CPU 199
APIO_procNo = 1095
writeThread 1095 on CPU 199
APIO_procNo = 1863
writeThread 1863 on CPU 199
APIO_procNo = 1224
writeThread 1224 on CPU 200
APIO_procNo = 1991
writeThread 1991 on CPU 199
APIO_procNo = 967
writeThread 967 on CPU 199
APIO_procNo = 839
APIO_procNo = 1479
writeThread 1479 on CPU 199
APIO_procNo = 1608
APIO_procNo = 327
writeThread 327 on CPU 199
APIO_procNo = 1352
writeThread 1352 on CPU 200
APIO_procNo = 1733
writeThread 1733 on CPU 197
APIO_procNo = 199
APIO_procNo = 584
writeThread 584 on CPU 200
APIO_procNo = 457
writeThread 457 on CPU 201
APIO_procNo = 712
writeThread 712 on CPU 200
APIO_procNo = 1096
writeThread 1096 on CPU 200
APIO_procNo = 1864
writeThread 1864 on CPU 200
APIO_procNo = 1225
writeThread 1225 on CPU 201
APIO_procNo = 1992
writeThread 1992 on CPU 200
APIO_procNo = 968
writeThread 968 on CPU 200
APIO_procNo = 840
APIO_procNo = 1480
writeThread 1480 on CPU 200
APIO_procNo = 1609
APIO_procNo = 328
writeThread 328 on CPU 200
APIO_procNo = 1353
writeThread 1353 on CPU 201
APIO_procNo = 1734
writeThread 1734 on CPU 198
APIO_procNo = 200
APIO_procNo = 585
writeThread 585 on CPU 201
APIO_procNo = 458
writeThread 458 on CPU 202
APIO_procNo = 713
writeThread 713 on CPU 201
APIO_procNo = 1097
writeThread 1097 on CPU 201
APIO_procNo = 1865
writeThread 1865 on CPU 201
APIO_procNo = 1226
writeThread 1226 on CPU 202
APIO_procNo = 1993
writeThread 1993 on CPU 201
APIO_procNo = 969
writeThread 969 on CPU 201
APIO_procNo = 841
APIO_procNo = 1481
writeThread 1481 on CPU 201
APIO_procNo = 1610
APIO_procNo = 329
writeThread 329 on CPU 201
APIO_procNo = 1354
writeThread 1354 on CPU 202
APIO_procNo = 1735
writeThread 1735 on CPU 199
APIO_procNo = 201
APIO_procNo = 586
writeThread 586 on CPU 202
APIO_procNo = 459
writeThread 459 on CPU 203
APIO_procNo = 714
writeThread 714 on CPU 202
APIO_procNo = 1098
writeThread 1098 on CPU 202
APIO_procNo = 1866
writeThread 1866 on CPU 202
APIO_procNo = 1227
writeThread 1227 on CPU 203
APIO_procNo = 1994
writeThread 1994 on CPU 202
APIO_procNo = 970
writeThread 970 on CPU 202
APIO_procNo = 842
APIO_procNo = 1482
writeThread 1482 on CPU 202
APIO_procNo = 1611
APIO_procNo = 330
writeThread 330 on CPU 202
APIO_procNo = 1355
writeThread 1355 on CPU 203
APIO_procNo = 1736
writeThread 1736 on CPU 200
APIO_procNo = 202
APIO_procNo = 587
writeThread 587 on CPU 203
APIO_procNo = 460
writeThread 460 on CPU 204
APIO_procNo = 715
writeThread 715 on CPU 203
APIO_procNo = 1099
writeThread 1099 on CPU 203
APIO_procNo = 1867
writeThread 1867 on CPU 203
APIO_procNo = 1228
writeThread 1228 on CPU 204
APIO_procNo = 1995
writeThread 1995 on CPU 203
APIO_procNo = 971
writeThread 971 on CPU 203
APIO_procNo = 843
APIO_procNo = 1483
writeThread 1483 on CPU 203
APIO_procNo = 1612
APIO_procNo = 331
writeThread 331 on CPU 203
APIO_procNo = 1356
writeThread 1356 on CPU 204
APIO_procNo = 1737
writeThread 1737 on CPU 201
APIO_procNo = 203
APIO_procNo = 588
writeThread 588 on CPU 204
APIO_procNo = 461
writeThread 461 on CPU 205
APIO_procNo = 716
writeThread 716 on CPU 204
APIO_procNo = 1100
writeThread 1100 on CPU 204
APIO_procNo = 1868
writeThread 1868 on CPU 204
APIO_procNo = 1229
writeThread 1229 on CPU 205
APIO_procNo = 1996
writeThread 1996 on CPU 204
APIO_procNo = 972
writeThread 972 on CPU 204
APIO_procNo = 844
APIO_procNo = 1484
writeThread 1484 on CPU 204
APIO_procNo = 1613
APIO_procNo = 332
writeThread 332 on CPU 204
APIO_procNo = 1357
writeThread 1357 on CPU 205
APIO_procNo = 1738
writeThread 1738 on CPU 202
APIO_procNo = 204
APIO_procNo = 589
writeThread 589 on CPU 205
APIO_procNo = 462
writeThread 462 on CPU 206
APIO_procNo = 717
writeThread 717 on CPU 205
APIO_procNo = 1101
writeThread 1101 on CPU 205
APIO_procNo = 1869
writeThread 1869 on CPU 205
APIO_procNo = 1230
writeThread 1230 on CPU 206
APIO_procNo = 1997
writeThread 1997 on CPU 205
APIO_procNo = 973
writeThread 973 on CPU 205
APIO_procNo = 845
APIO_procNo = 1485
writeThread 1485 on CPU 205
APIO_procNo = 1614
APIO_procNo = 333
writeThread 333 on CPU 205
APIO_procNo = 1358
writeThread 1358 on CPU 206
APIO_procNo = 1739
writeThread 1739 on CPU 203
APIO_procNo = 205
APIO_procNo = 590
writeThread 590 on CPU 206
APIO_procNo = 463
writeThread 463 on CPU 207
APIO_procNo = 718
writeThread 718 on CPU 206
APIO_procNo = 1102
writeThread 1102 on CPU 206
APIO_procNo = 1870
writeThread 1870 on CPU 206
APIO_procNo = 1231
writeThread 1231 on CPU 207
APIO_procNo = 1998
writeThread 1998 on CPU 206
APIO_procNo = 974
writeThread 974 on CPU 206
APIO_procNo = 846
APIO_procNo = 1486
writeThread 1486 on CPU 206
APIO_procNo = 1615
APIO_procNo = 334
writeThread 334 on CPU 206
APIO_procNo = 1359
writeThread 1359 on CPU 207
APIO_procNo = 1740
writeThread 1740 on CPU 204
APIO_procNo = 206
APIO_procNo = 591
writeThread 591 on CPU 207
APIO_procNo = 464
writeThread 464 on CPU 208
APIO_procNo = 719
writeThread 719 on CPU 207
APIO_procNo = 1103
writeThread 1103 on CPU 207
APIO_procNo = 1871
writeThread 1871 on CPU 207
APIO_procNo = 1232
writeThread 1232 on CPU 208
APIO_procNo = 1999
writeThread 1999 on CPU 207
APIO_procNo = 975
writeThread 975 on CPU 207
APIO_procNo = 847
APIO_procNo = 1487
writeThread 1487 on CPU 207
APIO_procNo = 1616
writeThread 1616 on CPU 208
APIO_procNo = 335
writeThread 335 on CPU 207
APIO_procNo = 1360
writeThread 1360 on CPU 208
APIO_procNo = 1741
writeThread 1741 on CPU 205
APIO_procNo = 207
APIO_procNo = 592
writeThread 592 on CPU 208
APIO_procNo = 465
writeThread 465 on CPU 209
APIO_procNo = 720
writeThread 720 on CPU 208
APIO_procNo = 1104
writeThread 1104 on CPU 208
APIO_procNo = 1872
writeThread 1872 on CPU 208
APIO_procNo = 1233
writeThread 1233 on CPU 209
APIO_procNo = 2000
APIO_procNo = 976
writeThread 976 on CPU 208
APIO_procNo = 848
writeThread 848 on CPU 208
APIO_procNo = 1488
writeThread 1488 on CPU 208
APIO_procNo = 1617
writeThread 1617 on CPU 209
APIO_procNo = 336
writeThread 336 on CPU 208
APIO_procNo = 1361
writeThread 1361 on CPU 209
APIO_procNo = 1742
writeThread 1742 on CPU 206
APIO_procNo = 208
writeThread 208 on CPU 208
APIO_procNo = 593
writeThread 593 on CPU 209
APIO_procNo = 466
writeThread 466 on CPU 210
APIO_procNo = 721
writeThread 721 on CPU 209
APIO_procNo = 1105
writeThread 1105 on CPU 209
APIO_procNo = 1873
writeThread 1873 on CPU 209
APIO_procNo = 1234
writeThread 1234 on CPU 210
APIO_procNo = 2001
writeThread 2001 on CPU 209
APIO_procNo = 977
writeThread 977 on CPU 209
APIO_procNo = 849
APIO_procNo = 1489
writeThread 1489 on CPU 209
APIO_procNo = 1618
writeThread 1618 on CPU 210
APIO_procNo = 337
writeThread 337 on CPU 209
APIO_procNo = 1362
writeThread 1362 on CPU 210
APIO_procNo = 1743
writeThread 1743 on CPU 207
APIO_procNo = 209
writeThread 209 on CPU 209
APIO_procNo = 594
writeThread 594 on CPU 210
APIO_procNo = 467
writeThread 467 on CPU 211
APIO_procNo = 722
writeThread 722 on CPU 210
APIO_procNo = 1106
writeThread 1106 on CPU 210
APIO_procNo = 1874
writeThread 1874 on CPU 210
APIO_procNo = 1235
writeThread 1235 on CPU 211
APIO_procNo = 2002
writeThread 2002 on CPU 210
APIO_procNo = 978
writeThread 978 on CPU 210
APIO_procNo = 850
writeThread 850 on CPU 210
APIO_procNo = 1490
writeThread 1490 on CPU 210
APIO_procNo = 1619
writeThread 1619 on CPU 211
APIO_procNo = 338
writeThread 338 on CPU 210
APIO_procNo = 1363
writeThread 1363 on CPU 211
APIO_procNo = 1744
writeThread 1744 on CPU 208
APIO_procNo = 210
writeThread 210 on CPU 210
APIO_procNo = 595
writeThread 595 on CPU 211
APIO_procNo = 468
writeThread 468 on CPU 212
APIO_procNo = 723
writeThread 723 on CPU 211
APIO_procNo = 1107
writeThread 1107 on CPU 211
APIO_procNo = 1875
writeThread 1875 on CPU 211
APIO_procNo = 1236
writeThread 1236 on CPU 212
APIO_procNo = 2003
writeThread 2003 on CPU 211
APIO_procNo = 979
writeThread 979 on CPU 211
APIO_procNo = 851
writeThread 851 on CPU 211
APIO_procNo = 1491
writeThread 1491 on CPU 211
APIO_procNo = 1620
writeThread 1620 on CPU 212
APIO_procNo = 339
writeThread 339 on CPU 211
APIO_procNo = 1364
writeThread 1364 on CPU 212
APIO_procNo = 1745
writeThread 1745 on CPU 209
APIO_procNo = 211
writeThread 211 on CPU 211
APIO_procNo = 596
writeThread 596 on CPU 212
APIO_procNo = 469
writeThread 469 on CPU 213
APIO_procNo = 724
writeThread 724 on CPU 212
APIO_procNo = 1108
writeThread 1108 on CPU 212
APIO_procNo = 1876
writeThread 1876 on CPU 212
APIO_procNo = 1237
writeThread 1237 on CPU 213
APIO_procNo = 2004
writeThread 2004 on CPU 212
APIO_procNo = 980
APIO_procNo = 852
writeThread 852 on CPU 212
APIO_procNo = 1492
writeThread 1492 on CPU 212
APIO_procNo = 1621
writeThread 1621 on CPU 213
APIO_procNo = 340
writeThread 340 on CPU 212
APIO_procNo = 1365
writeThread 1365 on CPU 213
APIO_procNo = 1746
writeThread 1746 on CPU 210
APIO_procNo = 212
writeThread 212 on CPU 212
APIO_procNo = 597
writeThread 597 on CPU 213
APIO_procNo = 470
writeThread 470 on CPU 214
APIO_procNo = 725
writeThread 725 on CPU 213
APIO_procNo = 1109
writeThread 1109 on CPU 213
APIO_procNo = 1877
writeThread 1877 on CPU 213
APIO_procNo = 1238
writeThread 1238 on CPU 214
APIO_procNo = 2005
writeThread 2005 on CPU 213
APIO_procNo = 981
APIO_procNo = 853
writeThread 853 on CPU 213
APIO_procNo = 1493
writeThread 1493 on CPU 213
APIO_procNo = 1622
writeThread 1622 on CPU 214
APIO_procNo = 341
writeThread 341 on CPU 213
APIO_procNo = 1366
writeThread 1366 on CPU 214
APIO_procNo = 1747
writeThread 1747 on CPU 211
APIO_procNo = 213
writeThread 213 on CPU 213
APIO_procNo = 598
writeThread 598 on CPU 214
APIO_procNo = 471
writeThread 471 on CPU 215
APIO_procNo = 726
writeThread 726 on CPU 214
APIO_procNo = 1110
writeThread 1110 on CPU 214
APIO_procNo = 1878
writeThread 1878 on CPU 214
APIO_procNo = 1239
writeThread 1239 on CPU 215
APIO_procNo = 2006
writeThread 2006 on CPU 214
APIO_procNo = 982
APIO_procNo = 854
writeThread 854 on CPU 214
APIO_procNo = 1494
writeThread 1494 on CPU 214
APIO_procNo = 1623
writeThread 1623 on CPU 215
APIO_procNo = 342
writeThread 342 on CPU 214
APIO_procNo = 1367
writeThread 1367 on CPU 215
APIO_procNo = 1748
writeThread 1748 on CPU 212
APIO_procNo = 214
writeThread 214 on CPU 214
APIO_procNo = 599
writeThread 599 on CPU 215
APIO_procNo = 472
writeThread 472 on CPU 216
APIO_procNo = 727
writeThread 727 on CPU 215
APIO_procNo = 1111
writeThread 1111 on CPU 215
APIO_procNo = 1879
writeThread 1879 on CPU 215
APIO_procNo = 1240
writeThread 1240 on CPU 216
APIO_procNo = 2007
writeThread 2007 on CPU 215
APIO_procNo = 983
APIO_procNo = 855
writeThread 855 on CPU 215
APIO_procNo = 1495
writeThread 1495 on CPU 215
APIO_procNo = 1624
writeThread 1624 on CPU 216
APIO_procNo = 343
writeThread 343 on CPU 215
APIO_procNo = 1368
writeThread 1368 on CPU 216
APIO_procNo = 1749
writeThread 1749 on CPU 213
APIO_procNo = 215
writeThread 215 on CPU 215
APIO_procNo = 600
writeThread 600 on CPU 216
APIO_procNo = 473
writeThread 473 on CPU 217
APIO_procNo = 728
writeThread 728 on CPU 216
APIO_procNo = 1112
writeThread 1112 on CPU 216
APIO_procNo = 1880
writeThread 1880 on CPU 216
APIO_procNo = 1241
writeThread 1241 on CPU 217
APIO_procNo = 2008
writeThread 2008 on CPU 216
APIO_procNo = 984
writeThread 984 on CPU 216
APIO_procNo = 856
writeThread 856 on CPU 216
APIO_procNo = 1496
APIO_procNo = 1625
writeThread 1625 on CPU 217
APIO_procNo = 344
writeThread 344 on CPU 216
APIO_procNo = 1369
writeThread 1369 on CPU 217
APIO_procNo = 1750
writeThread 1750 on CPU 214
APIO_procNo = 216
writeThread 216 on CPU 216
APIO_procNo = 601
writeThread 601 on CPU 217
APIO_procNo = 474
writeThread 474 on CPU 218
APIO_procNo = 729
writeThread 729 on CPU 217
APIO_procNo = 1113
writeThread 1113 on CPU 217
APIO_procNo = 1881
writeThread 1881 on CPU 217
APIO_procNo = 1242
writeThread 1242 on CPU 218
APIO_procNo = 2009
writeThread 2009 on CPU 217
APIO_procNo = 985
writeThread 985 on CPU 217
APIO_procNo = 857
writeThread 857 on CPU 217
APIO_procNo = 1497
APIO_procNo = 1626
writeThread 1626 on CPU 218
APIO_procNo = 345
writeThread 345 on CPU 217
APIO_procNo = 1370
writeThread 1370 on CPU 218
APIO_procNo = 1751
writeThread 1751 on CPU 215
APIO_procNo = 217
writeThread 217 on CPU 217
APIO_procNo = 602
writeThread 602 on CPU 218
APIO_procNo = 475
writeThread 475 on CPU 219
APIO_procNo = 730
writeThread 730 on CPU 218
APIO_procNo = 1114
writeThread 1114 on CPU 218
APIO_procNo = 1882
writeThread 1882 on CPU 218
APIO_procNo = 1243
writeThread 1243 on CPU 219
APIO_procNo = 2010
writeThread 2010 on CPU 218
APIO_procNo = 986
writeThread 986 on CPU 218
APIO_procNo = 858
writeThread 858 on CPU 218
APIO_procNo = 1498
APIO_procNo = 1627
writeThread 1627 on CPU 219
APIO_procNo = 346
writeThread 346 on CPU 218
APIO_procNo = 1371
writeThread 1371 on CPU 219
APIO_procNo = 1752
writeThread 1752 on CPU 216
APIO_procNo = 218
writeThread 218 on CPU 218
APIO_procNo = 603
writeThread 603 on CPU 219
APIO_procNo = 476
writeThread 476 on CPU 220
APIO_procNo = 731
writeThread 731 on CPU 219
APIO_procNo = 1115
writeThread 1115 on CPU 219
APIO_procNo = 1883
writeThread 1883 on CPU 219
APIO_procNo = 1244
writeThread 1244 on CPU 220
APIO_procNo = 2011
writeThread 2011 on CPU 219
APIO_procNo = 987
writeThread 987 on CPU 219
APIO_procNo = 859
writeThread 859 on CPU 219
APIO_procNo = 1499
APIO_procNo = 1628
writeThread 1628 on CPU 220
APIO_procNo = 347
writeThread 347 on CPU 219
APIO_procNo = 1372
writeThread 1372 on CPU 220
APIO_procNo = 1753
writeThread 1753 on CPU 217
APIO_procNo = 219
writeThread 219 on CPU 219
APIO_procNo = 604
writeThread 604 on CPU 220
APIO_procNo = 477
writeThread 477 on CPU 221
APIO_procNo = 732
writeThread 732 on CPU 220
APIO_procNo = 1116
writeThread 1116 on CPU 220
APIO_procNo = 1884
writeThread 1884 on CPU 220
APIO_procNo = 1245
writeThread 1245 on CPU 221
APIO_procNo = 2012
writeThread 2012 on CPU 220
APIO_procNo = 988
writeThread 988 on CPU 220
APIO_procNo = 860
writeThread 860 on CPU 220
APIO_procNo = 1500
writeThread 1500 on CPU 220
APIO_procNo = 1629
writeThread 1629 on CPU 221
APIO_procNo = 348
writeThread 348 on CPU 220
APIO_procNo = 1373
writeThread 1373 on CPU 221
APIO_procNo = 1754
writeThread 1754 on CPU 218
APIO_procNo = 220
writeThread 220 on CPU 220
APIO_procNo = 605
writeThread 605 on CPU 221
APIO_procNo = 478
writeThread 478 on CPU 222
APIO_procNo = 733
writeThread 733 on CPU 221
APIO_procNo = 1117
writeThread 1117 on CPU 221
APIO_procNo = 1885
writeThread 1885 on CPU 221
APIO_procNo = 1246
writeThread 1246 on CPU 222
APIO_procNo = 2013
writeThread 2013 on CPU 221
APIO_procNo = 989
writeThread 989 on CPU 221
APIO_procNo = 861
writeThread 861 on CPU 221
APIO_procNo = 1501
writeThread 1501 on CPU 221
APIO_procNo = 1630
writeThread 1630 on CPU 222
APIO_procNo = 349
writeThread 349 on CPU 221
APIO_procNo = 1374
writeThread 1374 on CPU 222
APIO_procNo = 1755
writeThread 1755 on CPU 219
APIO_procNo = 221
writeThread 221 on CPU 221
APIO_procNo = 606
writeThread 606 on CPU 222
APIO_procNo = 479
writeThread 479 on CPU 223
APIO_procNo = 734
writeThread 734 on CPU 222
APIO_procNo = 1118
writeThread 1118 on CPU 222
APIO_procNo = 1886
writeThread 1886 on CPU 222
APIO_procNo = 1247
writeThread 1247 on CPU 223
APIO_procNo = 2014
writeThread 2014 on CPU 222
APIO_procNo = 990
writeThread 990 on CPU 222
APIO_procNo = 862
writeThread 862 on CPU 222
APIO_procNo = 1502
writeThread 1502 on CPU 222
APIO_procNo = 1631
writeThread 1631 on CPU 223
APIO_procNo = 350
writeThread 350 on CPU 222
APIO_procNo = 1375
writeThread 1375 on CPU 223
APIO_procNo = 1756
writeThread 1756 on CPU 220
APIO_procNo = 222
writeThread 222 on CPU 222
APIO_procNo = 607
writeThread 607 on CPU 223
APIO_procNo = 480
writeThread 480 on CPU 224
APIO_procNo = 735
writeThread 735 on CPU 223
APIO_procNo = 1119
writeThread 1119 on CPU 223
APIO_procNo = 1887
writeThread 1887 on CPU 223
APIO_procNo = 1248
writeThread 1248 on CPU 224
APIO_procNo = 2015
writeThread 2015 on CPU 223
APIO_procNo = 991
writeThread 991 on CPU 223
APIO_procNo = 863
writeThread 863 on CPU 223
APIO_procNo = 1503
writeThread 1503 on CPU 223
APIO_procNo = 1632
writeThread 1632 on CPU 224
APIO_procNo = 351
writeThread 351 on CPU 223
APIO_procNo = 1376
writeThread 1376 on CPU 224
APIO_procNo = 1757
writeThread 1757 on CPU 221
APIO_procNo = 223
writeThread 223 on CPU 223
APIO_procNo = 608
writeThread 608 on CPU 224
APIO_procNo = 481
writeThread 481 on CPU 225
APIO_procNo = 736
writeThread 736 on CPU 224
APIO_procNo = 1120
writeThread 1120 on CPU 224
APIO_procNo = 1888
writeThread 1888 on CPU 224
APIO_procNo = 1249
writeThread 1249 on CPU 225
APIO_procNo = 2016
writeThread 2016 on CPU 224
APIO_procNo = 992
writeThread 992 on CPU 224
APIO_procNo = 864
writeThread 864 on CPU 224
APIO_procNo = 1504
writeThread 1504 on CPU 224
APIO_procNo = 1633
writeThread 1633 on CPU 225
APIO_procNo = 352
writeThread 352 on CPU 224
APIO_procNo = 1377
writeThread 1377 on CPU 225
APIO_procNo = 1758
writeThread 1758 on CPU 222
APIO_procNo = 224
writeThread 224 on CPU 224
APIO_procNo = 609
writeThread 609 on CPU 225
APIO_procNo = 482
writeThread 482 on CPU 226
APIO_procNo = 737
writeThread 737 on CPU 225
APIO_procNo = 1121
writeThread 1121 on CPU 225
APIO_procNo = 1889
writeThread 1889 on CPU 225
APIO_procNo = 1250
writeThread 1250 on CPU 226
APIO_procNo = 2017
writeThread 2017 on CPU 225
APIO_procNo = 993
writeThread 993 on CPU 225
APIO_procNo = 865
writeThread 865 on CPU 225
APIO_procNo = 1505
writeThread 1505 on CPU 225
APIO_procNo = 1634
writeThread 1634 on CPU 226
APIO_procNo = 353
writeThread 353 on CPU 225
APIO_procNo = 1378
writeThread 1378 on CPU 226
APIO_procNo = 1759
writeThread 1759 on CPU 223
APIO_procNo = 225
writeThread 225 on CPU 225
APIO_procNo = 610
writeThread 610 on CPU 226
APIO_procNo = 483
writeThread 483 on CPU 227
APIO_procNo = 738
writeThread 738 on CPU 226
APIO_procNo = 1122
writeThread 1122 on CPU 226
APIO_procNo = 1890
writeThread 1890 on CPU 226
APIO_procNo = 1251
writeThread 1251 on CPU 227
APIO_procNo = 2018
writeThread 2018 on CPU 226
APIO_procNo = 994
writeThread 994 on CPU 226
APIO_procNo = 866
writeThread 866 on CPU 226
APIO_procNo = 1506
writeThread 1506 on CPU 226
APIO_procNo = 1635
writeThread 1635 on CPU 227
APIO_procNo = 354
writeThread 354 on CPU 226
APIO_procNo = 1379
writeThread 1379 on CPU 227
APIO_procNo = 1760
writeThread 1760 on CPU 224
APIO_procNo = 226
writeThread 226 on CPU 226
APIO_procNo = 611
writeThread 611 on CPU 227
APIO_procNo = 484
writeThread 484 on CPU 228
APIO_procNo = 739
writeThread 739 on CPU 227
APIO_procNo = 1123
writeThread 1123 on CPU 227
APIO_procNo = 1891
writeThread 1891 on CPU 227
APIO_procNo = 1252
writeThread 1252 on CPU 228
APIO_procNo = 2019
writeThread 2019 on CPU 227
APIO_procNo = 995
writeThread 995 on CPU 227
APIO_procNo = 867
writeThread 867 on CPU 227
APIO_procNo = 1507
writeThread 1507 on CPU 227
APIO_procNo = 1636
APIO_procNo = 355
writeThread 355 on CPU 227
APIO_procNo = 1380
writeThread 1380 on CPU 228
APIO_procNo = 1761
writeThread 1761 on CPU 225
APIO_procNo = 227
writeThread 227 on CPU 227
APIO_procNo = 612
writeThread 612 on CPU 228
APIO_procNo = 485
writeThread 485 on CPU 229
APIO_procNo = 740
writeThread 740 on CPU 228
APIO_procNo = 1124
writeThread 1124 on CPU 228
APIO_procNo = 1892
writeThread 1892 on CPU 228
APIO_procNo = 1253
writeThread 1253 on CPU 229
APIO_procNo = 2020
writeThread 2020 on CPU 228
APIO_procNo = 996
writeThread 996 on CPU 228
APIO_procNo = 868
writeThread 868 on CPU 228
APIO_procNo = 1508
writeThread 1508 on CPU 228
APIO_procNo = 1637
APIO_procNo = 356
writeThread 356 on CPU 228
APIO_procNo = 1381
writeThread 1381 on CPU 229
APIO_procNo = 1762
writeThread 1762 on CPU 226
APIO_procNo = 228
writeThread 228 on CPU 228
APIO_procNo = 613
writeThread 613 on CPU 229
APIO_procNo = 486
writeThread 486 on CPU 230
APIO_procNo = 741
writeThread 741 on CPU 229
APIO_procNo = 1125
writeThread 1125 on CPU 229
APIO_procNo = 1893
writeThread 1893 on CPU 229
APIO_procNo = 1254
writeThread 1254 on CPU 230
APIO_procNo = 2021
writeThread 2021 on CPU 229
APIO_procNo = 997
writeThread 997 on CPU 229
APIO_procNo = 869
writeThread 869 on CPU 229
APIO_procNo = 1509
writeThread 1509 on CPU 229
APIO_procNo = 1638
APIO_procNo = 357
writeThread 357 on CPU 229
APIO_procNo = 1382
writeThread 1382 on CPU 230
APIO_procNo = 1763
writeThread 1763 on CPU 227
APIO_procNo = 229
writeThread 229 on CPU 229

Starting time loop

APIO_procNo = 614
writeThread 614 on CPU 230
APIO_procNo = 487
writeThread 487 on CPU 231
APIO_procNo = 742
writeThread 742 on CPU 230
APIO_procNo = 1126
writeThread 1126 on CPU 230
APIO_procNo = 1894
writeThread 1894 on CPU 230
APIO_procNo = 1255
writeThread 1255 on CPU 231
APIO_procNo = 2022
writeThread 2022 on CPU 230
APIO_procNo = 998
writeThread 998 on CPU 230
APIO_procNo = 870
writeThread 870 on CPU 230
APIO_procNo = 1510
writeThread 1510 on CPU 230
APIO_procNo = 1639
APIO_procNo = 358
writeThread 358 on CPU 230
APIO_procNo = 1383
writeThread 1383 on CPU 231
APIO_procNo = 1764
writeThread 1764 on CPU 228
APIO_procNo = 230
writeThread 230 on CPU 230
APIO_procNo = 615
writeThread 615 on CPU 231
APIO_procNo = 488
writeThread 488 on CPU 232
APIO_procNo = 743
writeThread 743 on CPU 231
APIO_procNo = 1127
writeThread 1127 on CPU 231
APIO_procNo = 1895
writeThread 1895 on CPU 231
APIO_procNo = 1256
writeThread 1256 on CPU 232
APIO_procNo = 2023
writeThread 2023 on CPU 231
APIO_procNo = 999
writeThread 999 on CPU 231
APIO_procNo = 871
writeThread 871 on CPU 231
APIO_procNo = 1511
writeThread 1511 on CPU 231
APIO_procNo = 1640
writeThread 1640 on CPU 232
APIO_procNo = 359
writeThread 359 on CPU 231
APIO_procNo = 1384
writeThread 1384 on CPU 232
APIO_procNo = 1765
writeThread 1765 on CPU 229
APIO_procNo = 231
writeThread 231 on CPU 231
APIO_procNo = 616
writeThread 616 on CPU 232
APIO_procNo = 489
writeThread 489 on CPU 233
APIO_procNo = 744
writeThread 744 on CPU 232
APIO_procNo = 1128
writeThread 1128 on CPU 232
APIO_procNo = 1896
writeThread 1896 on CPU 232
APIO_procNo = 1257
writeThread 1257 on CPU 233
APIO_procNo = 2024
writeThread 2024 on CPU 232
APIO_procNo = 1000
writeThread 1000 on CPU 232
APIO_procNo = 872
writeThread 872 on CPU 232
APIO_procNo = 1512
writeThread 1512 on CPU 232
APIO_procNo = 1641
writeThread 1641 on CPU 233
APIO_procNo = 360
writeThread 360 on CPU 232
APIO_procNo = 1385
writeThread 1385 on CPU 233
APIO_procNo = 1766
writeThread 1766 on CPU 230
APIO_procNo = 232
writeThread 232 on CPU 232
APIO_procNo = 617
writeThread 617 on CPU 233
APIO_procNo = 490
writeThread 490 on CPU 234
APIO_procNo = 745
writeThread 745 on CPU 233
APIO_procNo = 1129
writeThread 1129 on CPU 233
APIO_procNo = 1897
writeThread 1897 on CPU 233
APIO_procNo = 1258
writeThread 1258 on CPU 234
APIO_procNo = 2025
writeThread 2025 on CPU 233
APIO_procNo = 1001
writeThread 1001 on CPU 233
APIO_procNo = 873
writeThread 873 on CPU 233
APIO_procNo = 1513
writeThread 1513 on CPU 233
APIO_procNo = 1642
writeThread 1642 on CPU 234
APIO_procNo = 361
writeThread 361 on CPU 233
APIO_procNo = 1386
writeThread 1386 on CPU 234
APIO_procNo = 1767
writeThread 1767 on CPU 231
APIO_procNo = 233
writeThread 233 on CPU 233
APIO_procNo = 618
writeThread 618 on CPU 234
APIO_procNo = 491
writeThread 491 on CPU 235
APIO_procNo = 746
writeThread 746 on CPU 234
APIO_procNo = 1130
writeThread 1130 on CPU 234
APIO_procNo = 1898
writeThread 1898 on CPU 234
APIO_procNo = 1259
writeThread 1259 on CPU 235
APIO_procNo = 2026
writeThread 2026 on CPU 234
APIO_procNo = 1002
writeThread 1002 on CPU 234
APIO_procNo = 874
writeThread 874 on CPU 234
APIO_procNo = 1514
writeThread 1514 on CPU 234
APIO_procNo = 1643
writeThread 1643 on CPU 235
APIO_procNo = 362
writeThread 362 on CPU 234
APIO_procNo = 1387
writeThread 1387 on CPU 235
APIO_procNo = 1768
writeThread 1768 on CPU 232
APIO_procNo = 234
writeThread 234 on CPU 234
APIO_procNo = 619
writeThread 619 on CPU 235
APIO_procNo = 492
writeThread 492 on CPU 236
APIO_procNo = 747
writeThread 747 on CPU 235
APIO_procNo = 1131
writeThread 1131 on CPU 235
APIO_procNo = 1899
writeThread 1899 on CPU 235
APIO_procNo = 1260
writeThread 1260 on CPU 236
APIO_procNo = 2027
writeThread 2027 on CPU 235
APIO_procNo = 1003
writeThread 1003 on CPU 235
APIO_procNo = 875
writeThread 875 on CPU 235
APIO_procNo = 1515
writeThread 1515 on CPU 235
APIO_procNo = 1644
writeThread 1644 on CPU 236
APIO_procNo = 363
writeThread 363 on CPU 235
APIO_procNo = 1388
writeThread 1388 on CPU 236
APIO_procNo = 1769
writeThread 1769 on CPU 233
APIO_procNo = 235
writeThread 235 on CPU 235
APIO_procNo = 620
writeThread 620 on CPU 236
APIO_procNo = 493
writeThread 493 on CPU 237
APIO_procNo = 748
writeThread 748 on CPU 236
APIO_procNo = 1132
writeThread 1132 on CPU 236
APIO_procNo = 1900
writeThread 1900 on CPU 236
APIO_procNo = 1261
writeThread 1261 on CPU 237
APIO_procNo = 2028
writeThread 2028 on CPU 236
APIO_procNo = 1004
writeThread 1004 on CPU 236
APIO_procNo = 876
writeThread 876 on CPU 236
APIO_procNo = 1516
writeThread 1516 on CPU 236
APIO_procNo = 1645
writeThread 1645 on CPU 237
APIO_procNo = 364
writeThread 364 on CPU 236
APIO_procNo = 1389
writeThread 1389 on CPU 237
APIO_procNo = 1770
writeThread 1770 on CPU 234
APIO_procNo = 236
writeThread 236 on CPU 236
APIO_procNo = 621
writeThread 621 on CPU 237
APIO_procNo = 494
writeThread 494 on CPU 238
APIO_procNo = 749
writeThread 749 on CPU 237
APIO_procNo = 1133
writeThread 1133 on CPU 237
APIO_procNo = 1901
writeThread 1901 on CPU 237
APIO_procNo = 1262
writeThread 1262 on CPU 238
APIO_procNo = 2029
writeThread 2029 on CPU 237
APIO_procNo = 1005
writeThread 1005 on CPU 237
APIO_procNo = 877
writeThread 877 on CPU 237
APIO_procNo = 1517
writeThread 1517 on CPU 237
APIO_procNo = 1646
writeThread 1646 on CPU 238
APIO_procNo = 365
writeThread 365 on CPU 237
APIO_procNo = 1390
writeThread 1390 on CPU 238
APIO_procNo = 1771
writeThread 1771 on CPU 235
APIO_procNo = 237
writeThread 237 on CPU 237
APIO_procNo = 622
writeThread 622 on CPU 238
APIO_procNo = 495
writeThread 495 on CPU 239
APIO_procNo = 750
writeThread 750 on CPU 238
APIO_procNo = 1134
writeThread 1134 on CPU 238
APIO_procNo = 1902
writeThread 1902 on CPU 238
APIO_procNo = 1263
writeThread 1263 on CPU 239
APIO_procNo = 2030
writeThread 2030 on CPU 238
APIO_procNo = 1006
writeThread 1006 on CPU 238
APIO_procNo = 878
writeThread 878 on CPU 238
APIO_procNo = 1518
writeThread 1518 on CPU 238
APIO_procNo = 1647
writeThread 1647 on CPU 239
APIO_procNo = 366
writeThread 366 on CPU 238
APIO_procNo = 1391
writeThread 1391 on CPU 239
APIO_procNo = 1772
writeThread 1772 on CPU 236
APIO_procNo = 238
writeThread 238 on CPU 238
APIO_procNo = 623
writeThread 623 on CPU 239
APIO_procNo = 496
writeThread 496 on CPU 240
APIO_procNo = 751
writeThread 751 on CPU 239
APIO_procNo = 1135
writeThread 1135 on CPU 239
APIO_procNo = 1903
writeThread 1903 on CPU 239
APIO_procNo = 1264
writeThread 1264 on CPU 240
APIO_procNo = 2031
writeThread 2031 on CPU 239
APIO_procNo = 1007
APIO_procNo = 879
writeThread 879 on CPU 239
APIO_procNo = 1519
writeThread 1519 on CPU 239
APIO_procNo = 1648
writeThread 1648 on CPU 240
APIO_procNo = 367
writeThread 367 on CPU 239
APIO_procNo = 1392
writeThread 1392 on CPU 240
APIO_procNo = 1773
writeThread 1773 on CPU 237
APIO_procNo = 239
writeThread 239 on CPU 239
APIO_procNo = 624
writeThread 624 on CPU 240
APIO_procNo = 497
writeThread 497 on CPU 241
APIO_procNo = 752
writeThread 752 on CPU 240
APIO_procNo = 1136
writeThread 1136 on CPU 240
APIO_procNo = 1904
writeThread 1904 on CPU 240
APIO_procNo = 1265
writeThread 1265 on CPU 241
APIO_procNo = 2032
writeThread 2032 on CPU 240
APIO_procNo = 1008
writeThread 1008 on CPU 240
APIO_procNo = 880
writeThread 880 on CPU 240
APIO_procNo = 1520
writeThread 1520 on CPU 240
APIO_procNo = 1649
writeThread 1649 on CPU 241
APIO_procNo = 368
writeThread 368 on CPU 240
APIO_procNo = 1393
writeThread 1393 on CPU 241
APIO_procNo = 1774
writeThread 1774 on CPU 238
APIO_procNo = 240
writeThread 240 on CPU 240
APIO_procNo = 625
writeThread 625 on CPU 241
APIO_procNo = 498
writeThread 498 on CPU 242
APIO_procNo = 753
writeThread 753 on CPU 241
APIO_procNo = 1137
writeThread 1137 on CPU 241
APIO_procNo = 1905
writeThread 1905 on CPU 241
APIO_procNo = 1266
writeThread 1266 on CPU 242
APIO_procNo = 2033
writeThread 2033 on CPU 241
APIO_procNo = 1009
writeThread 1009 on CPU 241
APIO_procNo = 881
writeThread 881 on CPU 241
APIO_procNo = 1521
writeThread 1521 on CPU 241
APIO_procNo = 1650
writeThread 1650 on CPU 242
APIO_procNo = 369
writeThread 369 on CPU 241
APIO_procNo = 1394
[...]
time step continuity errors : sum local = 1.842224167205718e-16, global = 8.980475690055921e-17, cumulative = -3.22549555420891e-09
DILUPBiCG:  Solving for k, Initial residual = 0.009033456601617878, Final residual = 8.681266087565613e-15, No Iterations 6
ExecutionTime = 818.77 s  ClockTime = 2320 s

APIO_IO_STEP = 8.970483739999963
Courant Number mean: 5.45674898005579e-07 max: 0.2001608327482373
deltaT = 2.740293752750796e-06
Time = 0.000170555

PIMPLE: iteration 1
diagonal:  Solving for rho, Initial residual = 0, Final residual = 0, No Iterations 0
DILUPBiCG:  Solving for Ux, Initial residual = 0.01634352772803147, Final residual = 2.313099566098478e-13, No Iterations 5
DILUPBiCG:  Solving for Uy, Initial residual = 0.01634376254565735, Final residual = 1.415595434837857e-13, No Iterations 5
DILUPBiCG:  Solving for Uz, Initial residual = 0.008070928521416167, Final residual = 1.690784158601074e-13, No Iterations 5
DILUPBiCG:  Solving for e, Initial residual = 0.01129088875084648, Final residual = 3.969169656007304e-13, No Iterations 4
DILUPBiCG:  Solving for p, Initial residual = 0.01468201814915037, Final residual = 2.556110254882705e-05, No Iterations 1
pEqnloop: 0
diagonal:  Solving for rho, Initial residual = 0, Final residual = 0, No Iterations 0
time step continuity errors : sum local = 2.618546703418333e-10, global = -7.228641860261453e-11, cumulative = -3.297781972811525e-09
DILUPBiCG:  Solving for p, Initial residual = 0.0001153511793835025, Final residual = 5.223415933223979e-13, No Iterations 4
pEqnloop: 1
diagonal:  Solving for rho, Initial residual = 0, Final residual = 0, No Iterations 0
time step continuity errors : sum local = 1.713997539238296e-16, global = 5.407262064852662e-17, cumulative = -3.297781918738904e-09
DILUPBiCG:  Solving for k, Initial residual = 0.009101479492660713, Final residual = 5.824493655272151e-15, No Iterations 6
ExecutionTime = 828.16 s  ClockTime = 2335 s

APIO_IO_STEP = 3.503282392999154
Courant Number mean: 5.585254884084887e-07 max: 0.1996606258981212
deltaT = 2.744951580136831e-06
Time = 0.0001733

PIMPLE: iteration 1
diagonal:  Solving for rho, Initial residual = 0, Final residual = 0, No Iterations 0
DILUPBiCG:  Solving for Ux, Initial residual = 0.01620149251392952, Final residual = 2.238252525679264e-13, No Iterations 5
DILUPBiCG:  Solving for Uy, Initial residual = 0.01620147339618484, Final residual = 1.08978868947649e-13, No Iterations 5
DILUPBiCG:  Solving for Uz, Initial residual = 0.008007391420506264, Final residual = 1.656076811077827e-13, No Iterations 5
DILUPBiCG:  Solving for e, Initial residual = 0.01123279812643407, Final residual = 4.068001855044276e-13, No Iterations 4
DILUPBiCG:  Solving for p, Initial residual = 0.01462826082737999, Final residual = 2.524864863910011e-05, No Iterations 1
pEqnloop: 0
diagonal:  Solving for rho, Initial residual = 0, Final residual = 0, No Iterations 0
time step continuity errors : sum local = 2.632459581526893e-10, global = -7.394544358511147e-11, cumulative = -3.371727362324016e-09
DILUPBiCG:  Solving for p, Initial residual = 0.0001000279181925347, Final residual = 6.475570919676978e-13, No Iterations 4
pEqnloop: 1
diagonal:  Solving for rho, Initial residual = 0, Final residual = 0, No Iterations 0
time step continuity errors : sum local = 1.727265144123337e-16, global = -5.278821009590608e-17, cumulative = -3.371727415112226e-09
DILUPBiCG:  Solving for k, Initial residual = 0.009158722840448354, Final residual = 4.868751190771606e-15, No Iterations 6
ExecutionTime = 837.25 s  ClockTime = 2351 s

APIO_IO_STEP = 4.248036421000506
Courant Number mean: 5.730509544797408e-07 max: 0.1995644845627026
deltaT = 2.75094196860901e-06
Time = 0.000176051

PIMPLE: iteration 1
diagonal:  Solving for rho, Initial residual = 0, Final residual = 0, No Iterations 0
DILUPBiCG:  Solving for Ux, Initial residual = 0.01607326777285156, Final residual = 2.191634345682018e-13, No Iterations 5
DILUPBiCG:  Solving for Uy, Initial residual = 0.01607364776890007, Final residual = 9.003207633637298e-14, No Iterations 5
DILUPBiCG:  Solving for Uz, Initial residual = 0.007961033818469014, Final residual = 1.635576514040314e-13, No Iterations 5
DILUPBiCG:  Solving for e, Initial residual = 0.01116882358410026, Final residual = 3.974976650705319e-13, No Iterations 4
DILUPBiCG:  Solving for p, Initial residual = 0.01457634257519798, Final residual = 2.515929777762871e-05, No Iterations 1
pEqnloop: 0
diagonal:  Solving for rho, Initial residual = 0, Final residual = 0, No Iterations 0
time step continuity errors : sum local = 2.669218833038119e-10, global = -7.875213283824965e-11, cumulative = -3.450479547950475e-09
DILUPBiCG:  Solving for p, Initial residual = 0.0001044737169172519, Final residual = 8.910743834566781e-13, No Iterations 4
pEqnloop: 1
diagonal:  Solving for rho, Initial residual = 0, Final residual = 0, No Iterations 0
time step continuity errors : sum local = 1.720924539165491e-16, global = 2.967040788207784e-17, cumulative = -3.450479518280068e-09
DILUPBiCG:  Solving for k, Initial residual = 0.009186563854299735, Final residual = 4.961424636431902e-14, No Iterations 5
ExecutionTime = 846.89 s  ClockTime = 2368 s

APIO_IO_STEP = 3.233755903001111
Courant Number mean: 5.88089035240727e-07 max: 0.1996183770093299
deltaT = 2.756201117175119e-06
Time = 0.000178807

PIMPLE: iteration 1
diagonal:  Solving for rho, Initial residual = 0, Final residual = 0, No Iterations 0
DILUPBiCG:  Solving for Ux, Initial residual = 0.01592585613156458, Final residual = 2.165719028859308e-13, No Iterations 5
DILUPBiCG:  Solving for Uy, Initial residual = 0.0159263272790977, Final residual = 7.907052012157782e-14, No Iterations 5
DILUPBiCG:  Solving for Uz, Initial residual = 0.007904192359215209, Final residual = 1.598720316861282e-13, No Iterations 5
DILUPBiCG:  Solving for e, Initial residual = 0.01116993063043135, Final residual = 3.193766906546902e-13, No Iterations 4
DILUPBiCG:  Solving for p, Initial residual = 0.01458041459232498, Final residual = 2.477474770186461e-05, No Iterations 1
pEqnloop: 0
diagonal:  Solving for rho, Initial residual = 0, Final residual = 0, No Iterations 0
time step continuity errors : sum local = 2.674054608992321e-10, global = -7.741472636851549e-11, cumulative = -3.527894244648583e-09
DILUPBiCG:  Solving for p, Initial residual = 9.849121784575644e-05, Final residual = 5.876227868521307e-13, No Iterations 4
pEqnloop: 1
diagonal:  Solving for rho, Initial residual = 0, Final residual = 0, No Iterations 0
time step continuity errors : sum local = 1.682307349576541e-16, global = -7.493866453748301e-18, cumulative = -3.52789425214245e-09
DILUPBiCG:  Solving for k, Initial residual = 0.009189233240824797, Final residual = 2.90090965994218e-13, No Iterations 5
ExecutionTime = 854.2 s  ClockTime = 2387 s

APIO_IO_STEP = 9.097478238000349
Courant Number mean: 6.030729322810252e-07 max: 0.1994716175959345
deltaT = 2.763502046449822e-06
Time = 0.000181571

PIMPLE: iteration 1
diagonal:  Solving for rho, Initial residual = 0, Final residual = 0, No Iterations 0
DILUPBiCG:  Solving for Ux, Initial residual = 0.01578059887865266, Final residual = 2.174277788188965e-13, No Iterations 5
DILUPBiCG:  Solving for Uy, Initial residual = 0.01578095472145799, Final residual = 7.275604519438743e-14, No Iterations 5
DILUPBiCG:  Solving for Uz, Initial residual = 0.007825630896936686, Final residual = 1.55496568222722e-13, No Iterations 5
DILUPBiCG:  Solving for e, Initial residual = 0.01124065455674845, Final residual = 2.691381000873477e-13, No Iterations 4
DILUPBiCG:  Solving for p, Initial residual = 0.01458655379177834, Final residual = 2.482889161361569e-05, No Iterations 1
pEqnloop: 0
diagonal:  Solving for rho, Initial residual = 0, Final residual = 0, No Iterations 0
time step continuity errors : sum local = 2.725809974751385e-10, global = -7.843331826955916e-11, cumulative = -3.606327570412009e-09
DILUPBiCG:  Solving for p, Initial residual = 0.0001025504145537693, Final residual = 7.449472023289478e-13, No Iterations 4
pEqnloop: 1
diagonal:  Solving for rho, Initial residual = 0, Final residual = 0, No Iterations 0
time step continuity errors : sum local = 1.817482896446276e-16, global = -7.849220109710231e-17, cumulative = -3.60632764890421e-09
DILUPBiCG:  Solving for k, Initial residual = 0.009176838099530972, Final residual = 1.437286744743476e-14, No Iterations 5
ExecutionTime = 862.91 s  ClockTime = 2403 s

APIO_IO_STEP = 5.189124675001494
Courant Number mean: 6.186736428622903e-07 max: 0.1990689938693484
deltaT = 2.776426396431713e-06
Time = 0.000184347

PIMPLE: iteration 1
diagonal:  Solving for rho, Initial residual = 0, Final residual = 0, No Iterations 0
DILUPBiCG:  Solving for Ux, Initial residual = 0.01565958046761132, Final residual = 2.227806986629515e-13, No Iterations 5
DILUPBiCG:  Solving for Uy, Initial residual = 0.01565977607134545, Final residual = 6.999741206214692e-14, No Iterations 5
DILUPBiCG:  Solving for Uz, Initial residual = 0.007787096209052605, Final residual = 1.525465964849326e-13, No Iterations 5
DILUPBiCG:  Solving for e, Initial residual = 0.01121514582378054, Final residual = 2.784519040779818e-13, No Iterations 4
DILUPBiCG:  Solving for p, Initial residual = 0.01451892647399794, Final residual = 2.490898588200236e-05, No Iterations 1
pEqnloop: 0
diagonal:  Solving for rho, Initial residual = 0, Final residual = 0, No Iterations 0
time step continuity errors : sum local = 2.780897754877202e-10, global = -8.117524860968343e-11, cumulative = -3.687502897513893e-09
DILUPBiCG:  Solving for p, Initial residual = 0.0001009526343947576, Final residual = 9.426353579539974e-13, No Iterations 4
pEqnloop: 1
diagonal:  Solving for rho, Initial residual = 0, Final residual = 0, No Iterations 0
time step continuity errors : sum local = 1.738240008121905e-16, global = -4.047857084073581e-17, cumulative = -3.687502937992464e-09
DILUPBiCG:  Solving for k, Initial residual = 0.009160601223539649, Final residual = 4.291373906154294e-14, No Iterations 5
ExecutionTime = 867 s  ClockTime = 2418 s

APIO_IO_STEP = 8.015902847999769
Courant Number mean: 6.358396899166162e-07 max: 0.1984620785086163
deltaT = 2.797941468008116e-06
Time = 0.000187145

PIMPLE: iteration 1
diagonal:  Solving for rho, Initial residual = 0, Final residual = 0, No Iterations 0
DILUPBiCG:  Solving for Ux, Initial residual = 0.01562081654036205, Final residual = 2.331237502137862e-13, No Iterations 5
DILUPBiCG:  Solving for Uy, Initial residual = 0.01562101773103192, Final residual = 7.034079820768488e-14, No Iterations 5
DILUPBiCG:  Solving for Uz, Initial residual = 0.00778986982154386, Final residual = 1.525730763791452e-13, No Iterations 5
DILUPBiCG:  Solving for e, Initial residual = 0.01124663745347728, Final residual = 1.810988797099098e-14, No Iterations 5
DILUPBiCG:  Solving for p, Initial residual = 0.01462820130842776, Final residual = 2.509124620889557e-05, No Iterations 1
pEqnloop: 0
diagonal:  Solving for rho, Initial residual = 0, Final residual = 0, No Iterations 0
time step continuity errors : sum local = 2.848298501848857e-10, global = -8.326916306782219e-11, cumulative = -3.770772101060286e-09
DILUPBiCG:  Solving for p, Initial residual = 9.979380469610028e-05, Final residual = 9.0816599389633e-13, No Iterations 4
pEqnloop: 1
diagonal:  Solving for rho, Initial residual = 0, Final residual = 0, No Iterations 0
time step continuity errors : sum local = 1.782464211252247e-16, global = 5.423005573389581e-17, cumulative = -3.77077204683023e-09
DILUPBiCG:  Solving for k, Initial residual = 0.009179376034794616, Final residual = 7.26149943118067e-14, No Iterations 5
ExecutionTime = 876.3 s  ClockTime = 2432 s

APIO_IO_STEP = 3.192770932999338
Courant Number mean: 6.553659144595015e-07 max: 0.2007293362069574
deltaT = 2.787775340544492e-06
Time = 0.000189933

PIMPLE: iteration 1
diagonal:  Solving for rho, Initial residual = 0, Final residual = 0, No Iterations 0
DILUPBiCG:  Solving for Ux, Initial residual = 0.01544967183293745, Final residual = 2.277449861571025e-13, No Iterations 5
DILUPBiCG:  Solving for Uy, Initial residual = 0.015450013974509, Final residual = 6.710748147256024e-14, No Iterations 5
DILUPBiCG:  Solving for Uz, Initial residual = 0.007699264074042923, Final residual = 1.450866178907159e-13, No Iterations 5
DILUPBiCG:  Solving for e, Initial residual = 0.0112327671144061, Final residual = 1.768982271718902e-14, No Iterations 5
DILUPBiCG:  Solving for p, Initial residual = 0.01452729313730595, Final residual = 2.398713287190795e-05, No Iterations 1
pEqnloop: 0
diagonal:  Solving for rho, Initial residual = 0, Final residual = 0, No Iterations 0
time step continuity errors : sum local = 2.768258056170618e-10, global = -7.699082024372656e-11, cumulative = -3.847762867073957e-09
DILUPBiCG:  Solving for p, Initial residual = 0.0001018742231687001, Final residual = 1.681893438220477e-14, No Iterations 5
pEqnloop: 1
diagonal:  Solving for rho, Initial residual = 0, Final residual = 0, No Iterations 0
time step continuity errors : sum local = 1.779752204414074e-16, global = -8.986370596032959e-17, cumulative = -3.847762956937663e-09
DILUPBiCG:  Solving for k, Initial residual = 0.009120563480954918, Final residual = 4.622383315647784e-15, No Iterations 5
ExecutionTime = 887.26 s  ClockTime = 2453 s

APIO_IO_STEP = 6.956207070000346
Courant Number mean: 6.675627133433349e-07 max: 0.2018817391626794
deltaT = 2.761790493887162e-06
Time = 0.000192695

PIMPLE: iteration 1
diagonal:  Solving for rho, Initial residual = 0, Final residual = 0, No Iterations 0
DILUPBiCG:  Solving for Ux, Initial residual = 0.01520678458929652, Final residual = 2.103519243894754e-13, No Iterations 5
DILUPBiCG:  Solving for Uy, Initial residual = 0.01520692956875173, Final residual = 6.173593265668477e-14, No Iterations 5
DILUPBiCG:  Solving for Uz, Initial residual = 0.007563659470994928, Final residual = 1.333444885763532e-13, No Iterations 5
DILUPBiCG:  Solving for e, Initial residual = 0.01109702218979004, Final residual = 1.608584133381694e-14, No Iterations 5
DILUPBiCG:  Solving for p, Initial residual = 0.01439479238675353, Final residual = 2.298552394014453e-05, No Iterations 1
pEqnloop: 0
diagonal:  Solving for rho, Initial residual = 0, Final residual = 0, No Iterations 0
time step continuity errors : sum local = 2.695927087393369e-10, global = -7.444863406392804e-11, cumulative = -3.922211591001591e-09
DILUPBiCG:  Solving for p, Initial residual = 9.44970499813952e-05, Final residual = 1.131454909955618e-14, No Iterations 5
pEqnloop: 1
diagonal:  Solving for rho, Initial residual = 0, Final residual = 0, No Iterations 0
time step continuity errors : sum local = 1.824795807162612e-16, global = 1.00947359261217e-16, cumulative = -3.922211490054232e-09
DILUPBiCG:  Solving for k, Initial residual = 0.009041565292517382, Final residual = 5.803829638805815e-15, No Iterations 5
ExecutionTime = 895.28 s  ClockTime = 2470 s

APIO_IO_STEP = 6.440194799000437
Courant Number mean: 6.755034871895823e-07 max: 0.2016284351773894
deltaT = 2.739485124166511e-06
Time = 0.000195434

PIMPLE: iteration 1
diagonal:  Solving for rho, Initial residual = 0, Final residual = 0, No Iterations 0
DILUPBiCG:  Solving for Ux, Initial residual = 0.0149684102299329, Final residual = 1.92549155525234e-13, No Iterations 5
DILUPBiCG:  Solving for Uy, Initial residual = 0.01496841347688719, Final residual = 5.741624317740478e-14, No Iterations 5
DILUPBiCG:  Solving for Uz, Initial residual = 0.007421201694242969, Final residual = 1.228899394167847e-13, No Iterations 5
DILUPBiCG:  Solving for e, Initial residual = 0.01099155331574625, Final residual = 1.347341829465706e-14, No Iterations 5
DILUPBiCG:  Solving for p, Initial residual = 0.01416165026712268, Final residual = 2.184961054698623e-05, No Iterations 1
pEqnloop: 0
diagonal:  Solving for rho, Initial residual = 0, Final residual = 0, No Iterations 0
time step continuity errors : sum local = 2.603992165156991e-10, global = -7.228756637235434e-11, cumulative = -3.994499056426586e-09
DILUPBiCG:  Solving for p, Initial residual = 9.924049047837752e-05, Final residual = 8.699502415661658e-15, No Iterations 5
pEqnloop: 1
diagonal:  Solving for rho, Initial residual = 0, Final residual = 0, No Iterations 0
time step continuity errors : sum local = 1.613498625873854e-16, global = 2.969671006592047e-19, cumulative = -3.994499056129619e-09
DILUPBiCG:  Solving for k, Initial residual = 0.008986717953623925, Final residual = 2.198589957603316e-14, No Iterations 5
ExecutionTime = 900.78 s  ClockTime = 2484 s

APIO_IO_STEP = 6.876709833000405
Courant Number mean: 6.839119529070581e-07 max: 0.2007886841814608
deltaT = 2.728724614471514e-06
Time = 0.000198163

PIMPLE: iteration 1
diagonal:  Solving for rho, Initial residual = 0, Final residual = 0, No Iterations 0
DILUPBiCG:  Solving for Ux, Initial residual = 0.01477943713108559, Final residual = 1.79743021088084e-13, No Iterations 5
DILUPBiCG:  Solving for Uy, Initial residual = 0.01477902691005257, Final residual = 5.498067041433085e-14, No Iterations 5
DILUPBiCG:  Solving for Uz, Initial residual = 0.007324470794950577, Final residual = 1.161220898094476e-13, No Iterations 5
DILUPBiCG:  Solving for e, Initial residual = 0.01087605124510443, Final residual = 9.41879939575822e-15, No Iterations 5
DILUPBiCG:  Solving for p, Initial residual = 0.01401987832131671, Final residual = 2.134260160956966e-05, No Iterations 1
pEqnloop: 0
diagonal:  Solving for rho, Initial residual = 0, Final residual = 0, No Iterations 0
time step continuity errors : sum local = 2.584418649871357e-10, global = -7.262116761979047e-11, cumulative = -4.06712022374941e-09
DILUPBiCG:  Solving for p, Initial residual = 9.170061034488458e-05, Final residual = 2.489598216682737e-14, No Iterations 5
pEqnloop: 1
diagonal:  Solving for rho, Initial residual = 0, Final residual = 0, No Iterations 0
time step continuity errors : sum local = 1.599535909644607e-16, global = 2.357055007124319e-17, cumulative = -4.067120200178859e-09
DILUPBiCG:  Solving for k, Initial residual = 0.008970472969261166, Final residual = 1.463133666959573e-13, No Iterations 5
ExecutionTime = 911.37 s  ClockTime = 2501 s

APIO_IO_STEP = 2.679937666999649
Courant Number mean: 6.951634163138873e-07 max: 0.2003308024512283
deltaT = 2.724218723314729e-06
Time = 0.000200887

PIMPLE: iteration 1
diagonal:  Solving for rho, Initial residual = 0, Final residual = 0, No Iterations 0
DILUPBiCG:  Solving for Ux, Initial residual = 0.01465008572435657, Final residual = 1.717837776063085e-13, No Iterations 5
DILUPBiCG:  Solving for Uy, Initial residual = 0.01464957860334111, Final residual = 5.356815251871531e-14, No Iterations 5
DILUPBiCG:  Solving for Uz, Initial residual = 0.007272436844215871, Final residual = 1.121508861986931e-13, No Iterations 5
DILUPBiCG:  Solving for e, Initial residual = 0.01085341122332072, Final residual = 1.402719803572067e-14, No Iterations 5
DILUPBiCG:  Solving for p, Initial residual = 0.01395319194212556, Final residual = 2.102955437640034e-05, No Iterations 1
pEqnloop: 0
diagonal:  Solving for rho, Initial residual = 0, Final residual = 0, No Iterations 0
time step continuity errors : sum local = 2.587197049851292e-10, global = -7.319591995379851e-11, cumulative = -4.140316120132658e-09
DILUPBiCG:  Solving for p, Initial residual = 9.109700362552387e-05, Final residual = 9.056501119570851e-13, No Iterations 4
pEqnloop: 1
diagonal:  Solving for rho, Initial residual = 0, Final residual = 0, No Iterations 0
time step continuity errors : sum local = 1.959321471523246e-16, global = 1.145317630885602e-16, cumulative = -4.140316005600895e-09
DILUPBiCG:  Solving for k, Initial residual = 0.008981719995247904, Final residual = 1.538162464934282e-13, No Iterations 5
ExecutionTime = 924.28 s  ClockTime = 2519 s

APIO_IO_STEP = 2.928527100001247
Terminating ...
End

APIO_IO_TIME = 1141.770510642904
Finalising parallel run
