/*---------------------------------------------------------------------------*\
| =========                 |                                                 |
| \\      /  F ield         | OpenFOAM: The Open Source CFD Toolbox           |
|  \\    /   O peration     | Version:  v1912                                 |
|   \\  /    A nd           | Website:  www.openfoam.com                      |
|    \\/     M anipulation  |                                                 |
\*---------------------------------------------------------------------------*/
Build  : _f3950763fe-20191219 OPENFOAM=1912
Arch   : "LSB;label=32;scalar=64"
Exec   : rhoPimpleFoam_METRICS -parallel
Date   : Oct 27 2020
Time   : 23:49:55
Host   : r42c2t2n4
PID    : 142820
I/O    : uncollated
Case   : /lustre/cray/ws9/2/ws/hpcmcast-ashee2/HAWK/apio_256M/2048
nProcs : 2048
Hosts  :
(
    (r42c2t2n4 128)
    (r42c2t3n1 128)
    (r42c2t3n2 128)
    (r42c2t3n3 128)
    (r42c2t3n4 128)
    (r42c2t4n1 128)
    (r42c2t4n2 128)
    (r42c2t4n3 128)
    (r42c2t4n4 128)
    (r42c2t5n1 128)
    (r42c2t5n2 128)
    (r42c2t5n3 128)
    (r42c2t5n4 128)
    (r42c2t6n1 128)
    (r42c2t6n2 128)
    (r42c2t6n3 128)
)
Pstream initialized with:
    floatTransfer      : 0
    nProcsSimpleSum    : 0
    commsType          : nonBlocking
    polling iterations : 0
trapFpe: Floating point exception trapping enabled (FOAM_SIGFPE).
fileModificationChecking : Monitoring run-time modified files using timeStampMaster (fileModificationSkew 10)
allowSystemOperations : Allowing user-supplied system call operations

// * * * * * * * * * * * * * * * * * * * * * * * * * * * * * * * * * * * * * //
Create time

Create mesh for time = 0


PIMPLE: Operating solver in PISO mode

Reading thermophysical properties

Selecting thermodynamics package 
{
    type            hePsiThermo;
    mixture         pureMixture;
    transport       const;
    thermo          eConst;
    equationOfState perfectGas;
    specie          specie;
    energy          sensibleInternalEnergy;
}

Reading field U

Reading/calculating face flux field phi

--> FOAM Warning : 
    From function Foam::pressureControl::pressureControl(const volScalarField&, const volScalarField&, const Foam::dictionary&, bool)
    in file cfdTools/general/pressureControl/pressureControl.C at line 123
    Reading "/lustre/cray/ws9/2/ws/hpcmcast-ashee2/HAWK/apio_256M/2048/system/fvSolution.PIMPLE"
    'rhoMax' specified rather than 'pMax' or 'pMaxFactor'
    This is supported for backward-compatibility but 'pMax' or 'pMaxFactor' are more reliable.
--> FOAM Warning : 
    From function Foam::pressureControl::pressureControl(const volScalarField&, const volScalarField&, const Foam::dictionary&, bool)
    in file cfdTools/general/pressureControl/pressureControl.C at line 178
    Reading "/lustre/cray/ws9/2/ws/hpcmcast-ashee2/HAWK/apio_256M/2048/system/fvSolution.PIMPLE"
    'rhoMin' specified rather than 'pMin' or 'pMinFactor'
    This is supported for backward-compatibility but 'pMin' or 'pMinFactor' are more reliable.
pressureControl
    pMax 1726187.557059955
    pMin 4747.015781914877

Creating turbulence model

Selecting turbulence model type LES
Selecting LES turbulence model kEqn
Selecting LES delta type cubeRootVol
LES
{
    LESModel        kEqn;
    turbulence      on;
    printCoeffs     on;
    delta           cubeRootVol;
    cubeRootVolCoeffs
    {
        deltaCoeff      1;
    }
    PrandtlCoeffs
    {
        delta           cubeRootVol;
        cubeRootVolCoeffs
        {
            deltaCoeff      1;
        }
        smoothCoeffs
        {
            delta           cubeRootVol;
            cubeRootVolCoeffs
            {
                deltaCoeff      1;
            }
            maxDeltaRatio   1.1;
        }
        Cdelta          0.158;
    }
    vanDriestCoeffs
    {
        delta           cubeRootVol;
        cubeRootVolCoeffs
        {
            deltaCoeff      1;
        }
        smoothCoeffs
        {
            delta           cubeRootVol;
            cubeRootVolCoeffs
            {
                deltaCoeff      1;
            }
            maxDeltaRatio   1.1;
        }
        Aplus           26;
        Cdelta          0.158;
    }
    smoothCoeffs
    {
        delta           cubeRootVol;
        cubeRootVolCoeffs
        {
            deltaCoeff      1;
        }
        maxDeltaRatio   1.1;
    }
    Ce              1.048;
    Ck              0.094;
}

Creating field dpdt

Creating field kinetic energy K

No MRF models present

procNo = 16
procNo = 17
procNo = 18
procNo = 19
procNo = 20
procNo = 21
procNo = 22
procNo = 23
procNo = 24
procNo = 25
procNo = 26
procNo = 27
procNo = 28
procNo = 29
procNo = 30
procNo = 31
procNo = 32
procNo = 33
procNo = 34
procNo = 35
procNo = 36
procNo = 37
procNo = 38
procNo = 39
procNo = 40
procNo = 41
procNo = 42
procNo = 43
procNo = 44
procNo = 45
procNo = 46
procNo = 47
procNo = 48
procNo = 49
procNo = 50
procNo = 51
procNo = 52
procNo = 53
procNo = 54
procNo = 55
procNo = 56
procNo = 57
procNo = 58
procNo = 59
procNo = 60
procNo = 61
procNo = 62
procNo = 63
procNo = 64
procNo = 65
procNo = 66
procNo = 67
procNo = 68
procNo = 69
procNo = 70
procNo = 71
procNo = 72
procNo = 73
procNo = 74
procNo = 75
procNo = 76
procNo = 77
procNo = 78
procNo = 79
procNo = 80
procNo = 81
procNo = 82
procNo = 83
procNo = 84
procNo = 85
procNo = 86
procNo = 87
procNo = 88
procNo = 89
procNo = 90
procNo = 91
procNo = 92
procNo = 93
procNo = 94
procNo = 95
procNo = 96
procNo = 97
procNo = 98
procNo = 99
procNo = 100
procNo = 101
procNo = 102
procNo = 103
procNo = 104
procNo = 105
procNo = 106
procNo = 107
procNo = 108
procNo = 109
procNo = 110
procNo = 111
procNo = 112
procNo = 113
procNo = 114
procNo = 115
procNo = 116
procNo = 117
procNo = 118
procNo = 119
procNo = 120
procNo = 121
procNo = 122
procNo = 123
procNo = 124
procNo = 125
procNo = 126
procNo = 127
No finite volume options present
procNo = 0
masterNo = 0
procNo = 1
procNo = 2
procNo = 3
procNo = 4
procNo = 5
procNo = 6
procNo = 7
procNo = 8
procNo = 9
procNo = 10
procNo = 11
procNo = 12
procNo = 13
procNo = 14
procNo = 15
procNo = 896
procNo = 1536
procNo = 1792
procNo = 384
procNo = 768
procNo = 256
procNo = 1152
procNo = 640
procNo = 1408
procNo = 897
procNo = 1537
procNo = 1793
procNo = 1920
procNo = 385
procNo = 769
procNo = 257
procNo = 1153
procNo = 1280
procNo = 128
procNo = 641
procNo = 1409
procNo = 898
procNo = 1538
procNo = 1794
procNo = 1921
procNo = 1024
procNo = 386
procNo = 770
procNo = 258
procNo = 1154
procNo = 1664
procNo = 1281
procNo = 129
procNo = 512
procNo = 642
procNo = 1410
procNo = 899
procNo = 1539
procNo = 1795
procNo = 1922
procNo = 1025
procNo = 387
procNo = 771
procNo = 259
procNo = 1155
procNo = 1665
procNo = 1282
procNo = 130
procNo = 513
procNo = 643
procNo = 1411
procNo = 900
procNo = 1540
procNo = 1796
procNo = 1923
procNo = 1026
procNo = 388
procNo = 772
procNo = 260
procNo = 1156
procNo = 1666
procNo = 1283
procNo = 131
procNo = 514
procNo = 644
procNo = 1412
procNo = 901
procNo = 1541
procNo = 1797
procNo = 1924
procNo = 1027
procNo = 389
procNo = 773
procNo = 261
procNo = 1157
procNo = 1667
procNo = 1284
procNo = 132
procNo = 515
procNo = 645
procNo = 1413
procNo = 902
procNo = 1542
procNo = 1798
procNo = 1925
procNo = 1028
procNo = 390
procNo = 774
procNo = 262
procNo = 1158
procNo = 1668
procNo = 1285
procNo = 133
procNo = 516
procNo = 646
procNo = 1414
procNo = 903
procNo = 1543
procNo = 1799
procNo = 1926
procNo = 1029
procNo = 391
procNo = 775
procNo = 263
procNo = 1159
procNo = 1669
procNo = 1286
procNo = 134
procNo = 517
procNo = 647
procNo = 1415
procNo = 904
procNo = 1544
procNo = 1800
procNo = 1927
procNo = 1030
procNo = 392
procNo = 784
procNo = 264
procNo = 1160
procNo = 1670
procNo = 1287
procNo = 135
procNo = 518
procNo = 648
procNo = 1416
procNo = 905
procNo = 1545
procNo = 1801
procNo = 1928
procNo = 1031
procNo = 393
procNo = 785
procNo = 265
procNo = 1161
procNo = 1671
procNo = 1288
procNo = 136
procNo = 519
procNo = 649
procNo = 1417
procNo = 906
procNo = 1546
procNo = 1802
procNo = 1929
procNo = 1032
procNo = 394
procNo = 786
procNo = 266
procNo = 1162
procNo = 1672
procNo = 1289
procNo = 137
procNo = 520
procNo = 650
procNo = 1418
procNo = 907
procNo = 1547
procNo = 1803
procNo = 1930
procNo = 1033
procNo = 395
procNo = 787
procNo = 267
procNo = 1163
procNo = 1673
procNo = 1290
procNo = 138
procNo = 521
procNo = 651
procNo = 1419
procNo = 908
procNo = 1548
procNo = 1804
procNo = 1931
procNo = 1034
procNo = 396
procNo = 788
procNo = 268
procNo = 1164
procNo = 1674
procNo = 1291
procNo = 139
procNo = 652
procNo = 1420
procNo = 909
procNo = 1549
procNo = 1805
procNo = 1932
procNo = 1035
procNo = 397
procNo = 789
procNo = 269
procNo = 1165
procNo = 1675
procNo = 1292
procNo = 140
procNo = 522
procNo = 653
procNo = 1421
procNo = 910
procNo = 1550
procNo = 1806
procNo = 1933
procNo = 1036
procNo = 398
procNo = 790
procNo = 270
procNo = 1166
procNo = 1676
procNo = 1293
procNo = 141
procNo = 523
procNo = 654
procNo = 1422
procNo = 911
procNo = 1551
procNo = 1807
procNo = 1934
procNo = 1037
procNo = 399
procNo = 791
procNo = 271
procNo = 1167
procNo = 1677
procNo = 1294
procNo = 142
procNo = 524
procNo = 655
procNo = 1423
procNo = 912
procNo = 1552
procNo = 1808
procNo = 1935
procNo = 1038
procNo = 400
procNo = 792
procNo = 272
procNo = 1168
procNo = 1678
procNo = 1295
procNo = 143
procNo = 525
procNo = 656
procNo = 1424
procNo = 913
procNo = 1553
procNo = 1809
procNo = 1936
procNo = 1039
procNo = 401
procNo = 793
procNo = 273
procNo = 1169
procNo = 1679
procNo = 1296
procNo = 144
procNo = 526
procNo = 657
procNo = 1425
procNo = 914
procNo = 1554
procNo = 1810
procNo = 1937
procNo = 1040
procNo = 402
procNo = 794
procNo = 274
procNo = 1170
procNo = 1680
procNo = 1297
procNo = 145
procNo = 527
procNo = 658
procNo = 1426
procNo = 915
procNo = 1555
procNo = 1811
procNo = 1938
procNo = 1041
procNo = 403
procNo = 795
procNo = 275
procNo = 1171
procNo = 1681
procNo = 1298
procNo = 146
procNo = 528
procNo = 659
procNo = 1427
procNo = 916
procNo = 1556
procNo = 1812
procNo = 1939
procNo = 1042
procNo = 404
procNo = 796
procNo = 276
procNo = 1172
procNo = 1682
procNo = 1299
procNo = 147
procNo = 529
procNo = 660
procNo = 1428
procNo = 917
procNo = 1557
procNo = 1813
procNo = 1940
procNo = 1043
procNo = 405
procNo = 797
procNo = 277
procNo = 1173
procNo = 1683
procNo = 1300
procNo = 148
procNo = 530
procNo = 661
procNo = 1429
procNo = 918
procNo = 1558
procNo = 1814
procNo = 1941
procNo = 1044
procNo = 406
procNo = 798
procNo = 278
procNo = 1174
procNo = 1684
procNo = 1301
procNo = 149
procNo = 531
procNo = 662
procNo = 1430
procNo = 919
procNo = 1559
procNo = 1815
procNo = 1942
procNo = 1045
procNo = 407
procNo = 799
procNo = 279
procNo = 1175
procNo = 1685
procNo = 1302
procNo = 150
procNo = 532
procNo = 663
procNo = 1431
procNo = 920
procNo = 1560
procNo = 1816
procNo = 1943
procNo = 1046
procNo = 408
procNo = 800
procNo = 280
procNo = 1176
procNo = 1686
procNo = 1303
procNo = 151
procNo = 533
procNo = 664
procNo = 1432
procNo = 921
procNo = 1561
procNo = 1817
procNo = 1944
procNo = 1047
procNo = 409
procNo = 801
procNo = 281
procNo = 1177
procNo = 1687
procNo = 1304
procNo = 152
procNo = 534
procNo = 665
procNo = 1433
procNo = 922
procNo = 1562
procNo = 1818
procNo = 1945
procNo = 1048
procNo = 410
procNo = 802
procNo = 282
procNo = 1178
procNo = 1688
procNo = 1305
procNo = 153
procNo = 535
procNo = 666
procNo = 1434
procNo = 923
procNo = 1563
procNo = 1819
procNo = 1946
procNo = 1049
procNo = 411
procNo = 803
procNo = 283
procNo = 1179
procNo = 1689
procNo = 1306
procNo = 154
procNo = 536
procNo = 667
procNo = 1435
procNo = 924
procNo = 1564
procNo = 1820
procNo = 1947
procNo = 1050
procNo = 412
procNo = 804
procNo = 284
procNo = 1180
procNo = 1690
procNo = 1307
procNo = 155
procNo = 537
procNo = 668
procNo = 1436
procNo = 925
procNo = 1565
procNo = 1821
procNo = 1948
procNo = 1051
procNo = 413
procNo = 805
procNo = 285
procNo = 1181
procNo = 1691
procNo = 1308
procNo = 156
procNo = 538
procNo = 669
procNo = 1437
procNo = 926
procNo = 1566
procNo = 1822
procNo = 1949
procNo = 1052
procNo = 414
procNo = 806
procNo = 286
procNo = 1182
procNo = 1692
procNo = 1309
procNo = 157
procNo = 539
procNo = 670
procNo = 1438
procNo = 927
procNo = 1567
procNo = 1823
procNo = 1950
procNo = 1053
procNo = 415
procNo = 807
procNo = 287
procNo = 1183
procNo = 1693
procNo = 1310
procNo = 158
procNo = 540
procNo = 671
procNo = 1439
procNo = 928
procNo = 1568
procNo = 1824
procNo = 1951
procNo = 1054
procNo = 416
procNo = 808
procNo = 288
procNo = 1184
procNo = 1694
procNo = 1311
procNo = 159
procNo = 541
procNo = 672
procNo = 1440
procNo = 929
procNo = 1569
procNo = 1825
procNo = 1952
procNo = 1055
procNo = 417
procNo = 809
procNo = 289
procNo = 1185
procNo = 1695
procNo = 1312
procNo = 160
procNo = 542
procNo = 673
procNo = 1441
procNo = 930
procNo = 1570
procNo = 1826
procNo = 1953
procNo = 1056
procNo = 418
procNo = 810
procNo = 290
procNo = 1186
procNo = 1696
procNo = 1313
procNo = 161
procNo = 543
procNo = 674
procNo = 1442
procNo = 931
procNo = 1571
procNo = 1827
procNo = 1954
procNo = 1057
procNo = 419
procNo = 811
procNo = 291
procNo = 1187
procNo = 1697
procNo = 1314
procNo = 162
procNo = 544
procNo = 675
procNo = 1443
procNo = 932
procNo = 1572
procNo = 1828
procNo = 1955
procNo = 1058
procNo = 420
procNo = 812
procNo = 292
procNo = 1188
procNo = 1698
procNo = 1315
procNo = 163
procNo = 545
procNo = 676
procNo = 1444
procNo = 933
procNo = 1573
procNo = 1829
procNo = 1956
procNo = 1059
procNo = 421
procNo = 813
procNo = 293
procNo = 1189
procNo = 1699
procNo = 1316
procNo = 164
procNo = 546
procNo = 677
procNo = 1445
procNo = 934
procNo = 1574
procNo = 1830
procNo = 1957
procNo = 1060
procNo = 422
procNo = 814
procNo = 294
procNo = 1190
procNo = 1700
procNo = 1317
procNo = 165
procNo = 547
procNo = 678
procNo = 1446
procNo = 935
procNo = 1575
procNo = 1831
procNo = 1958
procNo = 1061
procNo = 423
procNo = 815
procNo = 295
procNo = 1191
procNo = 1701
procNo = 1318
procNo = 166
procNo = 548
procNo = 679
procNo = 1447
procNo = 936
procNo = 1576
procNo = 1832
procNo = 1959
procNo = 1062
procNo = 424
procNo = 816
procNo = 296
procNo = 1192
procNo = 1702
procNo = 1319
procNo = 167
procNo = 549
procNo = 680
procNo = 1448
procNo = 937
procNo = 1577
procNo = 1833
procNo = 1960
procNo = 1063
procNo = 425
procNo = 817
procNo = 297
procNo = 1193
procNo = 1703
procNo = 1320
procNo = 168
procNo = 550
procNo = 681
procNo = 1449
procNo = 938
procNo = 1578
procNo = 1834
procNo = 1961
procNo = 1064
procNo = 426
procNo = 818
procNo = 298
procNo = 1194
procNo = 1704
procNo = 1321
procNo = 169
procNo = 551
procNo = 682
procNo = 1450
procNo = 939
procNo = 1579
procNo = 1835
procNo = 1962
procNo = 1065
procNo = 427
procNo = 819
procNo = 299
procNo = 1195
procNo = 1705
procNo = 1322
procNo = 170
procNo = 552
procNo = 683
procNo = 1451
procNo = 940
procNo = 1580
procNo = 1836
procNo = 1963
procNo = 1066
procNo = 428
procNo = 820
procNo = 300
procNo = 1196
procNo = 1706
procNo = 1323
procNo = 171
procNo = 553
procNo = 684
procNo = 1452
procNo = 941
procNo = 1581
procNo = 1837
procNo = 1964
procNo = 1067
procNo = 429
procNo = 821
procNo = 301
procNo = 1197
procNo = 1707
procNo = 1324
procNo = 172
procNo = 554
procNo = 685
procNo = 1453
procNo = 942
procNo = 1582
procNo = 1838
procNo = 1965
procNo = 1068
procNo = 430
procNo = 822
procNo = 302
procNo = 1198
procNo = 1708
procNo = 1325
procNo = 173
procNo = 555
procNo = 686
procNo = 1454
procNo = 943
procNo = 1583
procNo = 1839
procNo = 1966
procNo = 1069
procNo = 431
procNo = 823
procNo = 303
procNo = 1199
procNo = 1709
procNo = 1326
procNo = 174
procNo = 556
procNo = 687
procNo = 1455
procNo = 944
procNo = 1584
procNo = 1840
procNo = 1967
procNo = 1070
procNo = 432
procNo = 824
procNo = 304
procNo = 1200
procNo = 1710
procNo = 1327
procNo = 175
procNo = 557
procNo = 688
procNo = 1456
procNo = 945
procNo = 1585
procNo = 1841
procNo = 1968
procNo = 1071
procNo = 433
procNo = 825
procNo = 305
procNo = 1201
procNo = 1711
procNo = 1328
procNo = 176
procNo = 558
procNo = 689
procNo = 1457
procNo = 946
procNo = 1586
procNo = 1842
procNo = 1969
procNo = 1072
procNo = 434
procNo = 826
procNo = 306
procNo = 1202
procNo = 1712
procNo = 1329
procNo = 177
procNo = 559
procNo = 690
procNo = 1458
procNo = 947
procNo = 1587
procNo = 1843
procNo = 1970
procNo = 1073
procNo = 435
procNo = 827
procNo = 307
procNo = 1203
procNo = 1713
procNo = 1330
procNo = 178
procNo = 560
procNo = 691
procNo = 1459
procNo = 948
procNo = 1588
procNo = 1844
procNo = 1971
procNo = 1074
procNo = 436
procNo = 828
procNo = 308
procNo = 1204
procNo = 1714
procNo = 1331
procNo = 179
procNo = 561
procNo = 692
procNo = 1460
procNo = 949
procNo = 1589
procNo = 1845
procNo = 1972
procNo = 1075
procNo = 437
procNo = 829
procNo = 309
procNo = 1205
procNo = 1715
procNo = 1332
procNo = 180
procNo = 562
procNo = 693
procNo = 1461
procNo = 950
procNo = 1590
procNo = 1846
procNo = 1973
procNo = 1076
procNo = 438
procNo = 830
procNo = 310
procNo = 1206
procNo = 1716
procNo = 1333
procNo = 181
procNo = 563
procNo = 694
procNo = 1462
procNo = 951
procNo = 1591
procNo = 1847
procNo = 1974
procNo = 1077
procNo = 439
procNo = 831
procNo = 311
procNo = 1207
procNo = 1717
procNo = 1334
procNo = 182
procNo = 564
procNo = 695
procNo = 1463
procNo = 952
procNo = 1592
procNo = 1848
procNo = 1975
procNo = 1078
procNo = 440
procNo = 832
procNo = 312
procNo = 1208
procNo = 1718
procNo = 1335
procNo = 183
procNo = 565
procNo = 696
procNo = 1464
procNo = 953
procNo = 1593
procNo = 1849
procNo = 1976
procNo = 1079
procNo = 441
procNo = 833
procNo = 313
procNo = 1209
procNo = 1719
procNo = 1336
procNo = 184
procNo = 566
procNo = 697
procNo = 1465
procNo = 954
procNo = 1594
procNo = 1850
procNo = 1977
procNo = 1080
procNo = 442
procNo = 834
procNo = 314
procNo = 1210
procNo = 1720
procNo = 1337
procNo = 185
procNo = 567
procNo = 698
procNo = 1466
procNo = 955
procNo = 1595
procNo = 1851
procNo = 1978
procNo = 1081
procNo = 443
procNo = 835
procNo = 315
procNo = 1211
procNo = 1721
procNo = 1338
procNo = 186
procNo = 568
procNo = 699
procNo = 1467
procNo = 956
procNo = 1596
procNo = 1852
procNo = 1979
procNo = 1082
procNo = 444
procNo = 836
procNo = 316
procNo = 1212
procNo = 1722
procNo = 1339
procNo = 187
procNo = 569
procNo = 700
procNo = 1468
procNo = 957
procNo = 1597
procNo = 1853
procNo = 1980
procNo = 1083
procNo = 445
procNo = 837
procNo = 317
procNo = 1213
procNo = 1723
procNo = 1340
procNo = 188
Courant Number mean: 5.192694825943195e-12 max: 2.085039370078741e-05
procNo = 570
procNo = 701
procNo = 1469
procNo = 958
procNo = 1598
procNo = 1854
procNo = 1981
procNo = 1084
procNo = 446
procNo = 838
procNo = 318
procNo = 1214
procNo = 1724
procNo = 1341
procNo = 189
procNo = 571
procNo = 702
procNo = 1470
procNo = 959
procNo = 1599
procNo = 1855
procNo = 1982
procNo = 1085
procNo = 447
procNo = 839
procNo = 319
procNo = 1215
procNo = 1725
procNo = 1342
procNo = 190
procNo = 572
procNo = 703
procNo = 1471
procNo = 960
procNo = 1600
procNo = 1856
procNo = 1983
procNo = 1086
procNo = 448
procNo = 840
procNo = 320
procNo = 1216
procNo = 1726
procNo = 1343
procNo = 191
procNo = 573
procNo = 704
procNo = 1472
procNo = 961
procNo = 1601
procNo = 1857
procNo = 1984
procNo = 1087
procNo = 449
procNo = 841
procNo = 321
procNo = 1217
procNo = 1727
procNo = 1344
procNo = 192
procNo = 574
procNo = 705
procNo = 1473
procNo = 962
procNo = 1602
procNo = 1858
procNo = 1985
procNo = 1088
procNo = 450
procNo = 842
procNo = 322
procNo = 1218
procNo = 1728
procNo = 1345
procNo = 193
procNo = 575
procNo = 706
procNo = 1474
procNo = 963
procNo = 1603
procNo = 1859
procNo = 1986
procNo = 1089
procNo = 451
procNo = 843
procNo = 323
procNo = 1219
procNo = 1729
procNo = 1346
procNo = 194
procNo = 576
procNo = 707
procNo = 1475
procNo = 964
procNo = 1604
procNo = 1860
procNo = 1987
procNo = 1090
procNo = 452
procNo = 844
procNo = 324
procNo = 1220
procNo = 1730
procNo = 1347
procNo = 195
procNo = 577
procNo = 708
procNo = 1476
procNo = 965
procNo = 1605
procNo = 1861
procNo = 1988
procNo = 1091
procNo = 453
procNo = 845
procNo = 325
procNo = 1221
procNo = 1731
procNo = 1348
procNo = 196
procNo = 578
procNo = 709
procNo = 1477
procNo = 966
procNo = 1606
procNo = 1862
procNo = 1989
procNo = 1092
procNo = 454
procNo = 846
procNo = 326
procNo = 1222
procNo = 1732
procNo = 1349
procNo = 197
procNo = 579
procNo = 710
procNo = 1478
procNo = 967
procNo = 1607
procNo = 1863
procNo = 1990
procNo = 1093
procNo = 455
procNo = 847
procNo = 327
procNo = 1223
procNo = 1733
procNo = 1350
procNo = 198
procNo = 580
procNo = 711
procNo = 1479
procNo = 968
procNo = 1608
procNo = 1864
procNo = 1991
procNo = 1094
procNo = 456
procNo = 848
procNo = 328
procNo = 1224
procNo = 1734
procNo = 1351
procNo = 199
procNo = 581
procNo = 712
procNo = 1480
procNo = 969
procNo = 1609
procNo = 1865
procNo = 1992
procNo = 1095
procNo = 457
procNo = 849
procNo = 329
procNo = 1225
procNo = 1735
procNo = 1352
procNo = 200
procNo = 582
procNo = 713
procNo = 1481
procNo = 970
procNo = 1610
procNo = 1866
procNo = 1993
procNo = 1096
procNo = 458
procNo = 850
procNo = 330
procNo = 1226
procNo = 1736
procNo = 1353
procNo = 201
procNo = 583
procNo = 714
procNo = 1482
procNo = 971
procNo = 1611
procNo = 1867
procNo = 1994
procNo = 1097
procNo = 459
procNo = 851
procNo = 331
procNo = 1227
procNo = 1737
procNo = 1354
procNo = 202
procNo = 584
procNo = 715
procNo = 1483
procNo = 972
procNo = 1612
procNo = 1868
procNo = 1995
procNo = 1098
procNo = 460
procNo = 852
procNo = 332
procNo = 1228
procNo = 1738
procNo = 1355
procNo = 203
procNo = 585
procNo = 716
procNo = 1484
procNo = 973
procNo = 1613
procNo = 1869
procNo = 1996
procNo = 1099
procNo = 461
procNo = 853
procNo = 333
procNo = 1229
procNo = 1739
procNo = 1356
procNo = 204
procNo = 586
procNo = 717
procNo = 1485
procNo = 974
procNo = 1614
procNo = 1870
procNo = 1997
procNo = 1100
procNo = 462
procNo = 854
procNo = 334
procNo = 1230
procNo = 1740
procNo = 1357
procNo = 205
procNo = 587
procNo = 718
procNo = 1486
procNo = 975
procNo = 1615
procNo = 1871
procNo = 1998
procNo = 1101
procNo = 463
procNo = 855
procNo = 335
procNo = 1231
procNo = 1741
procNo = 1358
procNo = 206
procNo = 588
procNo = 719
procNo = 1487
procNo = 976
procNo = 1616
procNo = 1872
procNo = 1999
procNo = 1102
procNo = 464
procNo = 856
procNo = 336
procNo = 1232
procNo = 1742
procNo = 1359
procNo = 207
procNo = 589
procNo = 720
procNo = 1488
procNo = 977
procNo = 1617
procNo = 1873
procNo = 2000
procNo = 1103
procNo = 465
procNo = 857
procNo = 337
procNo = 1233
procNo = 1743
procNo = 1360
procNo = 208
procNo = 590
procNo = 721
procNo = 1489
procNo = 978
procNo = 1618
procNo = 1874
procNo = 2001
procNo = 1104
procNo = 466
procNo = 858
procNo = 338
procNo = 1234
procNo = 1744
procNo = 1361
procNo = 209
procNo = 591
procNo = 722
procNo = 1490
procNo = 979
procNo = 1619
procNo = 1875
procNo = 2002
procNo = 1105
procNo = 467
procNo = 859
procNo = 339
procNo = 1235
procNo = 1745
procNo = 1362
procNo = 210
procNo = 592
procNo = 723
procNo = 1491
procNo = 980
procNo = 1620
procNo = 1876
procNo = 2003
procNo = 1106
procNo = 468
procNo = 860
procNo = 340
procNo = 1236
procNo = 1746
procNo = 1363
procNo = 211
procNo = 593
procNo = 724
procNo = 1492
procNo = 981
procNo = 1621
procNo = 1877
procNo = 2004
procNo = 1107
procNo = 469
procNo = 861
procNo = 341
procNo = 1237
procNo = 1747
procNo = 1364
procNo = 212
procNo = 594
procNo = 725
procNo = 1493
procNo = 982
procNo = 1622
procNo = 1878
procNo = 2005
procNo = 1108
procNo = 470
procNo = 862
procNo = 342
procNo = 1238
procNo = 1748
procNo = 1365
procNo = 213
procNo = 595
procNo = 726
procNo = 1494
procNo = 983
procNo = 1623
procNo = 1879
procNo = 2006
procNo = 1109
procNo = 471
procNo = 863
procNo = 343
procNo = 1239
procNo = 1749
procNo = 1366
procNo = 214
procNo = 596
procNo = 727
procNo = 1495
procNo = 984
procNo = 1624
procNo = 1880
procNo = 2007
procNo = 1110
procNo = 472
procNo = 864
procNo = 344
procNo = 1240
procNo = 1750
procNo = 1367
procNo = 215
procNo = 597
procNo = 728
procNo = 1496
procNo = 985
procNo = 1625
procNo = 1881
procNo = 2008
procNo = 1111
procNo = 473
procNo = 865
procNo = 345
procNo = 1241
procNo = 1751
procNo = 1368
procNo = 216
procNo = 598
procNo = 729
procNo = 1497
procNo = 986
procNo = 1626
procNo = 1882
procNo = 2009
procNo = 1112
procNo = 474
procNo = 866
procNo = 346
procNo = 1242
procNo = 1752
procNo = 1369
procNo = 217
procNo = 599
procNo = 730
procNo = 1498
procNo = 987
procNo = 1627
procNo = 1883
procNo = 2010
procNo = 1113
procNo = 475
procNo = 867
procNo = 347
procNo = 1243
procNo = 1753
procNo = 1370
procNo = 218
procNo = 600
procNo = 731
procNo = 1499
procNo = 988
procNo = 1628
procNo = 1884
procNo = 2011
procNo = 1114
procNo = 476
procNo = 868
procNo = 348
procNo = 1244
procNo = 1754
procNo = 1371
procNo = 219
procNo = 601
procNo = 732
procNo = 1500
procNo = 989
procNo = 1629
procNo = 1885
procNo = 2012
procNo = 1115
procNo = 477
procNo = 869
procNo = 349
procNo = 1245
procNo = 1755
procNo = 1372
procNo = 220
procNo = 602
procNo = 733
procNo = 1501
procNo = 990
procNo = 1630
procNo = 1886
procNo = 2013
procNo = 1116
procNo = 478
procNo = 870
procNo = 350
procNo = 1246
procNo = 1756
procNo = 1373
procNo = 221
procNo = 603
procNo = 734
procNo = 1502
procNo = 991
procNo = 1631
procNo = 1887
procNo = 2014
procNo = 1117
procNo = 479
procNo = 871
procNo = 351
procNo = 1247
procNo = 1757
procNo = 1374
procNo = 222
procNo = 604
procNo = 735
procNo = 1503
procNo = 992
procNo = 1632
procNo = 1888
procNo = 2015
procNo = 1118
procNo = 480
procNo = 872
procNo = 352
procNo = 1248
procNo = 1758
procNo = 1375
procNo = 223
procNo = 605
procNo = 736
procNo = 1504
procNo = 993
procNo = 1633
procNo = 1889
procNo = 2016
procNo = 1119
procNo = 481
procNo = 873
procNo = 353
procNo = 1249
procNo = 1759
procNo = 1376
procNo = 224
procNo = 606
procNo = 737
procNo = 1505
procNo = 994
procNo = 1634
procNo = 1890
procNo = 2017
procNo = 1120
procNo = 482
procNo = 874
procNo = 354
procNo = 1250
procNo = 1760
procNo = 1377
procNo = 225
procNo = 607
procNo = 738
procNo = 1506
procNo = 995
procNo = 1635
procNo = 1891
procNo = 2018
procNo = 1121
procNo = 483
procNo = 875
procNo = 355
procNo = 1251
procNo = 1761
procNo = 1378
procNo = 226
procNo = 608
procNo = 739
procNo = 1507
procNo = 996
procNo = 1636
procNo = 1892
procNo = 2019
procNo = 1122
procNo = 484
procNo = 876
procNo = 356
procNo = 1252
procNo = 1762
procNo = 1379
procNo = 227
procNo = 609
procNo = 740
procNo = 1508
procNo = 997
procNo = 1637
procNo = 1893
procNo = 2020
procNo = 1123
procNo = 485
procNo = 877
procNo = 357
procNo = 1253
procNo = 1763
procNo = 1380
procNo = 228
procNo = 610
procNo = 741
procNo = 1509
procNo = 998
procNo = 1638
procNo = 1894
procNo = 2021
procNo = 1124
procNo = 486
procNo = 878
procNo = 358
procNo = 1254
procNo = 1764
procNo = 1381
procNo = 229
procNo = 611
procNo = 742
procNo = 1510
procNo = 999
procNo = 1639
procNo = 1895
procNo = 2022
procNo = 1125
procNo = 487
procNo = 879
procNo = 359
procNo = 1255
procNo = 1765
procNo = 1382
procNo = 230
procNo = 612
procNo = 743
procNo = 1511
procNo = 1000
procNo = 1640
procNo = 1896
procNo = 2023
procNo = 1126
procNo = 488
procNo = 880
procNo = 360
procNo = 1256
procNo = 1766
procNo = 1383
procNo = 231
procNo = 613
procNo = 744
procNo = 1512
procNo = 1001
procNo = 1641
procNo = 1897
procNo = 2024
procNo = 1127
procNo = 489
procNo = 881
procNo = 361
procNo = 1257
procNo = 1767
procNo = 1384
procNo = 232
procNo = 614
procNo = 745
procNo = 1513
procNo = 1002
procNo = 1642
procNo = 1898
procNo = 2025
procNo = 1128
procNo = 490
procNo = 882
procNo = 362
procNo = 1258
procNo = 1768
procNo = 1385
procNo = 233
procNo = 615
procNo = 746
procNo = 1514
procNo = 1003
procNo = 1643
procNo = 1899
procNo = 2026
procNo = 1129
procNo = 491
procNo = 883
procNo = 363
procNo = 1259
procNo = 1769
procNo = 1386
procNo = 234
procNo = 616
procNo = 747
procNo = 1515
procNo = 1004
procNo = 1644
procNo = 1900
procNo = 2027
procNo = 1130
procNo = 492
procNo = 884
procNo = 364
procNo = 1260
procNo = 1770
procNo = 1387
procNo = 235
procNo = 617
procNo = 748
procNo = 1516
procNo = 1005
procNo = 1645
procNo = 1901
procNo = 2028
procNo = 1131
procNo = 493
procNo = 885
procNo = 365
procNo = 1261
procNo = 1771
procNo = 1388
procNo = 236
procNo = 618
procNo = 749
procNo = 1517
procNo = 1006
procNo = 1646
procNo = 1902
procNo = 2029
procNo = 1132
procNo = 494
procNo = 886
procNo = 366
procNo = 1262
procNo = 1772
procNo = 1389
procNo = 237
procNo = 619
procNo = 750
procNo = 1518
procNo = 1007
procNo = 1647
procNo = 1903
procNo = 2030
procNo = 1133
procNo = 495
procNo = 887
procNo = 367
procNo = 1263
procNo = 1773
procNo = 1390
procNo = 238
procNo = 620
procNo = 751
procNo = 1519
procNo = 1008
procNo = 1648
procNo = 1904
procNo = 2031
procNo = 1134
procNo = 496
procNo = 888
procNo = 368
procNo = 1264
procNo = 1774
procNo = 1391
procNo = 239
procNo = 621
procNo = 752
procNo = 1520
procNo = 1009
procNo = 1649
procNo = 1905
procNo = 2032
procNo = 1135
procNo = 497
procNo = 889
procNo = 369
procNo = 1265
procNo = 1775
procNo = 1392
procNo = 240
procNo = 622
procNo = 753
procNo = 1521
procNo = 1010
procNo = 1650
procNo = 1906
procNo = 2033
procNo = 1136
procNo = 498
procNo = 890
procNo = 370
procNo = 1266
procNo = 1776
procNo = 1393
procNo = 241
procNo = 623
procNo = 754
procNo = 1522
procNo = 1011
procNo = 1651
procNo = 1907
procNo = 2034
procNo = 1137
procNo = 499
procNo = 891
procNo = 371
procNo = 1267
procNo = 1777
procNo = 1394
procNo = 242
procNo = 624
procNo = 755
procNo = 1523
procNo = 1012
procNo = 1652
procNo = 1908
procNo = 2035
procNo = 1138
procNo = 500
procNo = 892
procNo = 372
procNo = 1268
procNo = 1778
procNo = 1395
procNo = 243
procNo = 625
procNo = 756
procNo = 1524
procNo = 1013
procNo = 1653
procNo = 1909
procNo = 2036
procNo = 1139
procNo = 501
procNo = 893
procNo = 373
procNo = 1269
procNo = 1779
procNo = 1396
procNo = 244
procNo = 626
procNo = 757
procNo = 1525
procNo = 1014
procNo = 1654
procNo = 1910
procNo = 2037
procNo = 1140
procNo = 502
procNo = 894
procNo = 374
procNo = 1270
procNo = 1780
procNo = 1397
procNo = 245
procNo = 627
procNo = 758
procNo = 1526
procNo = 1015
procNo = 1655
procNo = 1911
procNo = 2038
procNo = 1141
procNo = 503
procNo = 895
procNo = 375
procNo = 1271
procNo = 1781
procNo = 1398
procNo = 246
procNo = 628
procNo = 759
procNo = 1527
procNo = 1016
procNo = 1656
procNo = 1912
procNo = 2039
procNo = 1142
procNo = 504
procNo = 776
procNo = 376
procNo = 1272
procNo = 1782
procNo = 1399
procNo = 247
procNo = 629
procNo = 760
procNo = 1528
procNo = 1017
procNo = 1657
procNo = 1913
procNo = 2040
procNo = 1143
procNo = 505
procNo = 777
procNo = 377
procNo = 1273
procNo = 1783
procNo = 1400
procNo = 248
procNo = 630
procNo = 761
procNo = 1529
procNo = 1018
procNo = 1658
procNo = 1914
procNo = 2041
procNo = 1144
procNo = 506
procNo = 778
procNo = 378
procNo = 1274
procNo = 1784
procNo = 1401
procNo = 249
procNo = 631
procNo = 762
procNo = 1530
procNo = 1019
procNo = 1659
procNo = 1915
procNo = 2042
procNo = 1145
procNo = 507
procNo = 779
procNo = 379
procNo = 1275
procNo = 1785
procNo = 1402
procNo = 250
procNo = 632
procNo = 763
procNo = 1531
procNo = 1020
procNo = 1660
procNo = 1916
procNo = 2043
procNo = 1146
procNo = 508
procNo = 780
procNo = 380
procNo = 1276
procNo = 1786
procNo = 1403
procNo = 251
procNo = 633
procNo = 764
procNo = 1532
procNo = 1021
procNo = 1661
procNo = 1917
procNo = 2044
procNo = 1147
procNo = 509
procNo = 781
procNo = 381
procNo = 1277
procNo = 1787
procNo = 1404
procNo = 252
procNo = 634
procNo = 765
procNo = 1533
procNo = 1022
procNo = 1662
procNo = 1918
procNo = 2045
procNo = 1148
procNo = 510
procNo = 782
procNo = 382
procNo = 1278
procNo = 1788
procNo = 1405
procNo = 253
procNo = 635
procNo = 766
procNo = 1534
procNo = 1023
procNo = 1663
procNo = 1919
procNo = 2046
procNo = 1149
procNo = 511
procNo = 783
procNo = 383
procNo = 1279
procNo = 1789
procNo = 1406
procNo = 254
procNo = 636
procNo = 767
procNo = 1535
procNo = 2047
procNo = 1150
procNo = 1790
procNo = 1407
procNo = 255
procNo = 637
procNo = 1151
procNo = 1791
procNo = 638
procNo = 639

Starting time loop

Courant Number mean: 5.192694825943195e-12 max: 2.085039370078741e-05
deltaT = 1.2e-09
Time = 1.2e-09

PIMPLE: iteration 1
diagonal:  Solving for rho, Initial residual = 0, Final residual = 0, No Iterations 0
DILUPBiCG:  Solving for Ux, Initial residual = 1, Final residual = 2.323857117478014e-20, No Iterations 2
DILUPBiCG:  Solving for Uy, Initial residual = 1, Final residual = 1.717274625443234e-20, No Iterations 2
DILUPBiCG:  Solving for Uz, Initial residual = 1, Final residual = 3.147608615200144e-20, No Iterations 2
DILUPBiCG:  Solving for e, Initial residual = 0.9999919676417593, Final residual = 1.265979591831096e-19, No Iterations 2
DILUPBiCG:  Solving for p, Initial residual = 0.9999970874674783, Final residual = 9.862813728057653e-10, No Iterations 1
diagonal:  Solving for rho, Initial residual = 0, Final residual = 0, No Iterations 0
time step continuity errors : sum local = 2.491853294550623e-16, global = -2.489739579428761e-16, cumulative = -2.489739579428761e-16
DILUPBiCG:  Solving for p, Initial residual = 9.14214959371127e-07, Final residual = 1.2562190007191e-15, No Iterations 1
diagonal:  Solving for rho, Initial residual = 0, Final residual = 0, No Iterations 0
time step continuity errors : sum local = 2.658618608157052e-16, global = -2.653667494635926e-16, cumulative = -5.143407074064688e-16
DILUPBiCG:  Solving for k, Initial residual = 0.9999999607896877, Final residual = 3.148829965434822e-20, No Iterations 2
ExecutionTime = 135.09 s  ClockTime = 704 s

ORIG_COMP_STEP = 2.920504576
ORIG_IO_STEP = 34.354342415
Courant Number mean: 6.231265028377832e-12 max: 2.501990921293872e-05
deltaT = 1.44e-09
Time = 2.64e-09

PIMPLE: iteration 1
diagonal:  Solving for rho, Initial residual = 0, Final residual = 0, No Iterations 0
DILUPBiCG:  Solving for Ux, Initial residual = 0.3749195260528752, Final residual = 5.289067191749571e-21, No Iterations 2
DILUPBiCG:  Solving for Uy, Initial residual = 0.3749195261447285, Final residual = 3.899640230148412e-21, No Iterations 2
DILUPBiCG:  Solving for Uz, Initial residual = 0.2307595602438258, Final residual = 4.417185450680566e-21, No Iterations 2
DILUPBiCG:  Solving for e, Initial residual = 0.2307607532097754, Final residual = 1.772347382200366e-20, No Iterations 2
DILUPBiCG:  Solving for p, Initial residual = 0.2307687447951594, Final residual = 1.372317205283013e-10, No Iterations 1
diagonal:  Solving for rho, Initial residual = 0, Final residual = 0, No Iterations 0
time step continuity errors : sum local = 5.403492305229423e-16, global = -5.403060182570285e-16, cumulative = -1.054646725663497e-15
DILUPBiCG:  Solving for p, Initial residual = 6.455182197290252e-07, Final residual = 6.966778396525481e-14, No Iterations 1
diagonal:  Solving for rho, Initial residual = 0, Final residual = 0, No Iterations 0
time step continuity errors : sum local = 4.832041802927083e-16, global = -4.832006989938635e-16, cumulative = -1.537847424657361e-15
DILUPBiCG:  Solving for k, Initial residual = 0.7612497230719313, Final residual = 1.45917255577465e-20, No Iterations 2
ExecutionTime = 148.99 s  ClockTime = 753 s

ORIG_COMP_STEP = 13.836851384
ORIG_IO_STEP = 42.30795752900001
Courant Number mean: 7.477563209638438e-12 max: 3.002308059560315e-05
deltaT = 1.728e-09
Time = 4.368e-09

PIMPLE: iteration 1
diagonal:  Solving for rho, Initial residual = 0, Final residual = 0, No Iterations 0
DILUPBiCG:  Solving for Ux, Initial residual = 0.323107305607461, Final residual = 6.695043272325004e-21, No Iterations 2
DILUPBiCG:  Solving for Uy, Initial residual = 0.3231073042935559, Final residual = 4.904453955854092e-21, No Iterations 2
DILUPBiCG:  Solving for Uz, Initial residual = 0.1406140850728291, Final residual = 3.973029983277819e-21, No Iterations 2
DILUPBiCG:  Solving for e, Initial residual = 0.1406140850775175, Final residual = 1.582948908765768e-20, No Iterations 2
DILUPBiCG:  Solving for p, Initial residual = 0.1406189617135483, Final residual = 1.204257542644558e-10, No Iterations 1
diagonal:  Solving for rho, Initial residual = 0, Final residual = 0, No Iterations 0
time step continuity errors : sum local = 6.580025696253637e-16, global = -6.579669293684386e-16, cumulative = -2.195814354025799e-15
DILUPBiCG:  Solving for p, Initial residual = 4.037707202685969e-07, Final residual = 6.774403924404455e-13, No Iterations 1
diagonal:  Solving for rho, Initial residual = 0, Final residual = 0, No Iterations 0
time step continuity errors : sum local = 6.409645366604889e-16, global = -6.409644012357558e-16, cumulative = -2.836778755261555e-15
DILUPBiCG:  Solving for k, Initial residual = 0.5223922401030102, Final residual = 1.480487479076319e-20, No Iterations 2
ExecutionTime = 157.74 s  ClockTime = 808 s

ORIG_COMP_STEP = 8.60698945899999
ORIG_IO_STEP = 36.49079018200001
Courant Number mean: 8.973141201907477e-12 max: 3.602653054273846e-05
deltaT = 2.0736e-09
Time = 6.4416e-09

PIMPLE: iteration 1
diagonal:  Solving for rho, Initial residual = 0, Final residual = 0, No Iterations 0
DILUPBiCG:  Solving for Ux, Initial residual = 0.2861773219573405, Final residual = 8.846799894407652e-21, No Iterations 2
DILUPBiCG:  Solving for Uy, Initial residual = 0.2861773201979864, Final residual = 6.407146012649074e-21, No Iterations 2
DILUPBiCG:  Solving for Uz, Initial residual = 0.1060777402150756, Final residual = 4.509752601017691e-21, No Iterations 2
DILUPBiCG:  Solving for e, Initial residual = 0.1060737805798052, Final residual = 1.774870081816225e-20, No Iterations 2
DILUPBiCG:  Solving for p, Initial residual = 0.1060805370433849, Final residual = 1.308349107258194e-10, No Iterations 1
diagonal:  Solving for rho, Initial residual = 0, Final residual = 0, No Iterations 0
time step continuity errors : sum local = 3.579116556204818e-16, global = -3.562912721931867e-16, cumulative = -3.193070027454742e-15
DILUPBiCG:  Solving for p, Initial residual = 2.940034717002838e-07, Final residual = 5.29109234703262e-22, No Iterations 2
diagonal:  Solving for rho, Initial residual = 0, Final residual = 0, No Iterations 0
time step continuity errors : sum local = 3.925393278315784e-16, global = -3.922439429366319e-16, cumulative = -3.585313970391374e-15
DILUPBiCG:  Solving for k, Initial residual = 0.3755560071936763, Final residual = 1.606058731702298e-20, No Iterations 2
ExecutionTime = 168.81 s  ClockTime = 861 s

ORIG_COMP_STEP = 10.96810081000001
ORIG_IO_STEP = 35.67999329
Courant Number mean: 1.076786417171314e-11 max: 4.323015923841612e-05
deltaT = 2.48832e-09
Time = 8.92992e-09

PIMPLE: iteration 1
diagonal:  Solving for rho, Initial residual = 0, Final residual = 0, No Iterations 0
DILUPBiCG:  Solving for Ux, Initial residual = 0.2580113819479266, Final residual = 1.209533748912637e-20, No Iterations 2
DILUPBiCG:  Solving for Uy, Initial residual = 0.2580113812844867, Final residual = 8.617922279328458e-21, No Iterations 2
DILUPBiCG:  Solving for Uz, Initial residual = 0.08805258569577966, Final residual = 5.743973558658314e-21, No Iterations 2
DILUPBiCG:  Solving for e, Initial residual = 0.08804613194912049, Final residual = 2.222207276375501e-20, No Iterations 2
DILUPBiCG:  Solving for p, Initial residual = 0.0880536097275425, Final residual = 1.564094291010904e-10, No Iterations 1
diagonal:  Solving for rho, Initial residual = 0, Final residual = 0, No Iterations 0
time step continuity errors : sum local = 1.190415706852453e-16, global = -4.379425296571784e-17, cumulative = -3.629108223357091e-15
DILUPBiCG:  Solving for p, Initial residual = 1.630188867257449e-07, Final residual = 2.214965612250951e-13, No Iterations 1
diagonal:  Solving for rho, Initial residual = 0, Final residual = 0, No Iterations 0
time step continuity errors : sum local = 1.135318529567294e-16, global = -2.097395705366681e-17, cumulative = -3.650082180410758e-15
DILUPBiCG:  Solving for k, Initial residual = 0.2906873619332093, Final residual = 1.916160437764728e-20, No Iterations 2
ExecutionTime = 176.83 s  ClockTime = 914 s

ORIG_COMP_STEP = 7.883645485000017
ORIG_IO_STEP = 37.29860097900001
Courant Number mean: 1.292157458031081e-11 max: 5.187377896431862e-05
deltaT = 2.985983999999999e-09
Time = 1.19159e-08

PIMPLE: iteration 1
diagonal:  Solving for rho, Initial residual = 0, Final residual = 0, No Iterations 0
DILUPBiCG:  Solving for Ux, Initial residual = 0.236902559373113, Final residual = 1.713048424405196e-20, No Iterations 2
DILUPBiCG:  Solving for Uy, Initial residual = 0.2369025598026153, Final residual = 1.195066148222261e-20, No Iterations 2
DILUPBiCG:  Solving for Uz, Initial residual = 0.07712839472529913, Final residual = 7.874812747300579e-21, No Iterations 2
DILUPBiCG:  Solving for e, Initial residual = 0.07711758843764649, Final residual = 2.981904006380149e-20, No Iterations 2
DILUPBiCG:  Solving for p, Initial residual = 0.07712646223487753, Final residual = 1.973180151394624e-10, No Iterations 1
diagonal:  Solving for rho, Initial residual = 0, Final residual = 0, No Iterations 0
time step continuity errors : sum local = 3.640250805963913e-16, global = 3.630074800160768e-16, cumulative = -3.287074700394681e-15
DILUPBiCG:  Solving for p, Initial residual = 1.062209539670844e-07, Final residual = 1.828584146354334e-13, No Iterations 1
diagonal:  Solving for rho, Initial residual = 0, Final residual = 0, No Iterations 0
time step continuity errors : sum local = 3.78767162379905e-16, global = 3.735858547812826e-16, cumulative = -2.913488845613399e-15
DILUPBiCG:  Solving for k, Initial residual = 0.2385155073453094, Final residual = 2.477759604673812e-20, No Iterations 2
ExecutionTime = 187.42 s  ClockTime = 964 s

ORIG_COMP_STEP = 10.48283813700002
ORIG_IO_STEP = 32.621767041
Courant Number mean: 1.550608968382294e-11 max: 6.224506732903095e-05
deltaT = 3.583180799999999e-09
Time = 1.54991e-08

PIMPLE: iteration 1
diagonal:  Solving for rho, Initial residual = 0, Final residual = 0, No Iterations 0
DILUPBiCG:  Solving for Ux, Initial residual = 0.2210516587178992, Final residual = 2.509921470851126e-20, No Iterations 2
DILUPBiCG:  Solving for Uy, Initial residual = 0.221051658039047, Final residual = 1.706778783955393e-20, No Iterations 2
DILUPBiCG:  Solving for Uz, Initial residual = 0.0698992870652595, Final residual = 1.139724700122534e-20, No Iterations 2
DILUPBiCG:  Solving for e, Initial residual = 0.06988503487756985, Final residual = 4.208973759012415e-20, No Iterations 2
DILUPBiCG:  Solving for p, Initial residual = 0.06989625342451518, Final residual = 2.575613962415671e-10, No Iterations 1
diagonal:  Solving for rho, Initial residual = 0, Final residual = 0, No Iterations 0
time step continuity errors : sum local = 3.245847224836469e-16, global = 3.240857353346271e-16, cumulative = -2.589403110278772e-15
DILUPBiCG:  Solving for p, Initial residual = 7.942861324129499e-08, Final residual = 1.256861380209324e-13, No Iterations 1
diagonal:  Solving for rho, Initial residual = 0, Final residual = 0, No Iterations 0
time step continuity errors : sum local = 3.172899647251325e-16, global = 3.167165219410843e-16, cumulative = -2.272686588337687e-15
DILUPBiCG:  Solving for k, Initial residual = 0.2042780235409848, Final residual = 3.422850344507618e-20, No Iterations 2
ExecutionTime = 200.52 s  ClockTime = 1011 s

ORIG_COMP_STEP = 13.02743916700001
ORIG_IO_STEP = 35.18792353999999
Courant Number mean: 1.860759957188097e-11 max: 7.468909815230522e-05
deltaT = 4.299816959999999e-09
Time = 1.97989e-08

PIMPLE: iteration 1
diagonal:  Solving for rho, Initial residual = 0, Final residual = 0, No Iterations 0
DILUPBiCG:  Solving for Ux, Initial residual = 0.2090170828754482, Final residual = 3.856874920925378e-20, No Iterations 2
DILUPBiCG:  Solving for Uy, Initial residual = 0.2090170818017827, Final residual = 2.506600843133797e-20, No Iterations 2
DILUPBiCG:  Solving for Uz, Initial residual = 0.06483293983237413, Final residual = 1.723073228856547e-20, No Iterations 2
DILUPBiCG:  Solving for e, Initial residual = 0.06481563661326707, Final residual = 6.189253671920958e-20, No Iterations 2
DILUPBiCG:  Solving for p, Initial residual = 0.06482865831601095, Final residual = 3.440972479934498e-10, No Iterations 1
diagonal:  Solving for rho, Initial residual = 0, Final residual = 0, No Iterations 0
time step continuity errors : sum local = 1.386139074960914e-16, global = -7.886783906888343e-17, cumulative = -2.351554427406571e-15
DILUPBiCG:  Solving for p, Initial residual = 6.909397087167436e-08, Final residual = 1.203409866212963e-13, No Iterations 1
diagonal:  Solving for rho, Initial residual = 0, Final residual = 0, No Iterations 0
time step continuity errors : sum local = 1.425615737926737e-16, global = -8.838571305281032e-17, cumulative = -2.439940140459381e-15
DILUPBiCG:  Solving for k, Initial residual = 0.1805907410278361, Final residual = 5.001538587839862e-20, No Iterations 2
ExecutionTime = 208.05 s  ClockTime = 1059 s

ORIG_COMP_STEP = 7.402071539000019
ORIG_IO_STEP = 34.41015720199999
Courant Number mean: 2.232954635128549e-11 max: 8.961976116517032e-05
deltaT = 5.159780351999998e-09
Time = 2.49587e-08

PIMPLE: iteration 1
diagonal:  Solving for rho, Initial residual = 0, Final residual = 0, No Iterations 0
DILUPBiCG:  Solving for Ux, Initial residual = 0.1997577590670795, Final residual = 6.154137891523895e-20, No Iterations 2
DILUPBiCG:  Solving for Uy, Initial residual = 0.1997577577906242, Final residual = 3.780684871558667e-20, No Iterations 2
DILUPBiCG:  Solving for Uz, Initial residual = 0.06113762276434615, Final residual = 2.703808535991514e-20, No Iterations 2
DILUPBiCG:  Solving for e, Initial residual = 0.06111657423015804, Final residual = 9.431595551768088e-20, No Iterations 2
DILUPBiCG:  Solving for p, Initial residual = 0.06113231415779864, Final residual = 4.674114541345372e-10, No Iterations 1
diagonal:  Solving for rho, Initial residual = 0, Final residual = 0, No Iterations 0
time step continuity errors : sum local = 2.876032035222154e-16, global = -2.858995898207074e-16, cumulative = -2.725839730280088e-15
DILUPBiCG:  Solving for p, Initial residual = 4.731102774460935e-08, Final residual = 9.050825522427208e-14, No Iterations 1
diagonal:  Solving for rho, Initial residual = 0, Final residual = 0, No Iterations 0
time step continuity errors : sum local = 2.820747655332144e-16, global = -2.794981627863075e-16, cumulative = -3.005337893066396e-15
DILUPBiCG:  Solving for k, Initial residual = 0.1635152993481123, Final residual = 7.680250890380092e-20, No Iterations 2
ExecutionTime = 221.3 s  ClockTime = 1108 s

ORIG_COMP_STEP = 13.17689984099997
ORIG_IO_STEP = 33.00135274400003
Courant Number mean: 2.679608156307556e-11 max: 0.0001075334397309669
deltaT = 6.191736422399998e-09
Time = 3.11504e-08

PIMPLE: iteration 1
diagonal:  Solving for rho, Initial residual = 0, Final residual = 0, No Iterations 0
DILUPBiCG:  Solving for Ux, Initial residual = 0.1925418244519111, Final residual = 1.015774549584099e-19, No Iterations 2
DILUPBiCG:  Solving for Uy, Initial residual = 0.1925418233693485, Final residual = 5.8512927979439e-20, No Iterations 2
DILUPBiCG:  Solving for Uz, Initial residual = 0.05836273781135801, Final residual = 4.384966797488396e-20, No Iterations 2
DILUPBiCG:  Solving for e, Initial residual = 0.05833730319654586, Final residual = 1.48506000146098e-19, No Iterations 2
DILUPBiCG:  Solving for p, Initial residual = 0.05835614959211347, Final residual = 6.42779479907523e-10, No Iterations 1
diagonal:  Solving for rho, Initial residual = 0, Final residual = 0, No Iterations 0
time step continuity errors : sum local = 5.187295218188585e-16, global = -5.156872861517079e-16, cumulative = -3.521025179218104e-15
DILUPBiCG:  Solving for p, Initial residual = 3.176867123325187e-08, Final residual = 7.107631719367258e-14, No Iterations 1
diagonal:  Solving for rho, Initial residual = 0, Final residual = 0, No Iterations 0
time step continuity errors : sum local = 5.28591515200247e-16, global = -5.272769929489474e-16, cumulative = -4.048302172167051e-15
DILUPBiCG:  Solving for k, Initial residual = 0.1508056006103973, Final residual = 1.23397258002948e-19, No Iterations 2
ExecutionTime = 233.83 s  ClockTime = 1158 s

ORIG_COMP_STEP = 12.444907108
ORIG_IO_STEP = 34.62939063199997
Courant Number mean: 3.215621878658077e-11 max: 0.0001290253889150596
deltaT = 7.430083706879997e-09
Time = 3.85805e-08

PIMPLE: iteration 1
diagonal:  Solving for rho, Initial residual = 0, Final residual = 0, No Iterations 0
DILUPBiCG:  Solving for Ux, Initial residual = 0.1868536733349741, Final residual = 1.738570470616057e-19, No Iterations 2
DILUPBiCG:  Solving for Uy, Initial residual = 0.1868536725270552, Final residual = 9.286037500289227e-20, No Iterations 2
DILUPBiCG:  Solving for Uz, Initial residual = 0.05623278757816028, Final residual = 7.326792608953302e-20, No Iterations 2
DILUPBiCG:  Solving for e, Initial residual = 0.05620212366960532, Final residual = 2.412226581420974e-19, No Iterations 2
DILUPBiCG:  Solving for p, Initial residual = 0.05622486433318243, Final residual = 8.92254225910949e-10, No Iterations 1
diagonal:  Solving for rho, Initial residual = 0, Final residual = 0, No Iterations 0
time step continuity errors : sum local = 2.407598545693475e-16, global = 2.18339024090672e-16, cumulative = -3.829963148076379e-15
DILUPBiCG:  Solving for p, Initial residual = 3.780046221402501e-08, Final residual = 9.762883171958578e-14, No Iterations 1
diagonal:  Solving for rho, Initial residual = 0, Final residual = 0, No Iterations 0
time step continuity errors : sum local = 2.01255294852343e-16, global = 1.736823378623912e-16, cumulative = -3.656280810213988e-15
DILUPBiCG:  Solving for k, Initial residual = 0.1411035580665808, Final residual = 2.068007594088206e-19, No Iterations 2
ExecutionTime = 239.79 s  ClockTime = 1212 s

ORIG_COMP_STEP = 5.802533222000022
ORIG_IO_STEP = 35.21349781599997
Courant Number mean: 3.858882252687538e-11 max: 0.0001548093385833501
deltaT = 8.916100448255996e-09
Time = 4.74966e-08

PIMPLE: iteration 1
diagonal:  Solving for rho, Initial residual = 0, Final residual = 0, No Iterations 0
DILUPBiCG:  Solving for Ux, Initial residual = 0.1823250938087548, Final residual = 3.128766209530689e-19, No Iterations 2
DILUPBiCG:  Solving for Uy, Initial residual = 0.1823250928617186, Final residual = 1.509969471343506e-19, No Iterations 2
DILUPBiCG:  Solving for Uz, Initial residual = 0.05456975096826047, Final residual = 1.258043812860802e-19, No Iterations 2
DILUPBiCG:  Solving for e, Initial residual = 0.05453284812814766, Final residual = 4.038611411794234e-19, No Iterations 2
DILUPBiCG:  Solving for p, Initial residual = 0.05456012350059896, Final residual = 1.247574133140734e-09, No Iterations 1
diagonal:  Solving for rho, Initial residual = 0, Final residual = 0, No Iterations 0
time step continuity errors : sum local = 1.398952234156154e-16, global = -7.078482323144192e-17, cumulative = -3.72706563344543e-15
DILUPBiCG:  Solving for p, Initial residual = 3.523137138641328e-08, Final residual = 1.066200403207599e-13, No Iterations 1
diagonal:  Solving for rho, Initial residual = 0, Final residual = 0, No Iterations 0
time step continuity errors : sum local = 1.534515637676521e-16, global = -1.075419786980469e-16, cumulative = -3.834607612143477e-15
DILUPBiCG:  Solving for k, Initial residual = 0.1335465837286389, Final residual = 3.606215035924347e-19, No Iterations 2
ExecutionTime = 255.48 s  ClockTime = 1263 s

ORIG_COMP_STEP = 15.63687506400004
ORIG_IO_STEP = 37.00979347000009
Courant Number mean: 4.63086039505119e-11 max: 0.0001857409471672457
deltaT = 1.069932053790719e-08
Time = 5.81959e-08

PIMPLE: iteration 1
diagonal:  Solving for rho, Initial residual = 0, Final residual = 0, No Iterations 0
DILUPBiCG:  Solving for Ux, Initial residual = 0.1786886572012944, Final residual = 5.77628054844952e-19, No Iterations 2
DILUPBiCG:  Solving for Uy, Initial residual = 0.1786886565009052, Final residual = 2.512791831342399e-19, No Iterations 2
DILUPBiCG:  Solving for Uz, Initial residual = 0.05325341591310425, Final residual = 2.214459702158399e-19, No Iterations 2
DILUPBiCG:  Solving for e, Initial residual = 0.05320907871452127, Final residual = 6.965826316731384e-19, No Iterations 2
DILUPBiCG:  Solving for p, Initial residual = 0.05324170212686984, Final residual = 1.754399485849759e-09, No Iterations 1
diagonal:  Solving for rho, Initial residual = 0, Final residual = 0, No Iterations 0
time step continuity errors : sum local = 1.445328014292551e-16, global = -9.055151808413159e-17, cumulative = -3.925159130227609e-15
DILUPBiCG:  Solving for p, Initial residual = 2.390141342459e-08, Final residual = 8.527587016650882e-14, No Iterations 1
diagonal:  Solving for rho, Initial residual = 0, Final residual = 0, No Iterations 0
time step continuity errors : sum local = 1.502278250858968e-16, global = -1.193360598022992e-16, cumulative = -4.044495190029908e-15
DILUPBiCG:  Solving for k, Initial residual = 0.1275636872389759, Final residual = 6.528805035093699e-19, No Iterations 2
ExecutionTime = 271.22 s  ClockTime = 1318 s

ORIG_COMP_STEP = 15.66150246699999
ORIG_IO_STEP = 38.88106390899998
Courant Number mean: 5.55733301035677e-11 max: 0.0002228458487620226
deltaT = 1.283918464548863e-08
Time = 7.10351e-08

PIMPLE: iteration 1
diagonal:  Solving for rho, Initial residual = 0, Final residual = 0, No Iterations 0
DILUPBiCG:  Solving for Ux, Initial residual = 0.175746644776042, Final residual = 1.09183184650781e-18, No Iterations 2
DILUPBiCG:  Solving for Uy, Initial residual = 0.1757466444479736, Final residual = 4.271492904708514e-19, No Iterations 2
DILUPBiCG:  Solving for Uz, Initial residual = 0.05219964121167344, Final residual = 3.986340343397489e-19, No Iterations 2
DILUPBiCG:  Solving for e, Initial residual = 0.05214607404097157, Final residual = 1.237266788177374e-18, No Iterations 2
DILUPBiCG:  Solving for p, Initial residual = 0.05218549158999293, Final residual = 2.478431265083483e-09, No Iterations 1
diagonal:  Solving for rho, Initial residual = 0, Final residual = 0, No Iterations 0
time step continuity errors : sum local = 4.580265994535968e-16, global = -4.432234602606015e-16, cumulative = -4.48771865029051e-15
DILUPBiCG:  Solving for p, Initial residual = 1.817099677750805e-08, Final residual = 7.676701634581473e-14, No Iterations 1
diagonal:  Solving for rho, Initial residual = 0, Final residual = 0, No Iterations 0
time step continuity errors : sum local = 4.405107755303613e-16, global = -4.40479570433466e-16, cumulative = -4.928198220723976e-15
DILUPBiCG:  Solving for k, Initial residual = 0.1227634508824636, Final residual = 1.224355736245789e-18, No Iterations 2
ExecutionTime = 284.14 s  ClockTime = 1373 s

ORIG_COMP_STEP = 12.81577558699996
ORIG_IO_STEP = 37.04455926699995
Courant Number mean: 6.669249781988005e-11 max: 0.0002673531757326263
deltaT = 1.540702157458636e-08
Time = 8.64421e-08

PIMPLE: iteration 1
diagonal:  Solving for rho, Initial residual = 0, Final residual = 0, No Iterations 0
DILUPBiCG:  Solving for Ux, Initial residual = 0.173350334586114, Final residual = 2.111124807453207e-18, No Iterations 2
DILUPBiCG:  Solving for Uy, Initial residual = 0.1733503346604476, Final residual = 7.395466294624767e-19, No Iterations 2
DILUPBiCG:  Solving for Uz, Initial residual = 0.0513477504375227, Final residual = 7.319396657252916e-19, No Iterations 2
DILUPBiCG:  Solving for e, Initial residual = 0.05128354427144463, Final residual = 2.26201980685132e-18, No Iterations 2
DILUPBiCG:  Solving for p, Initial residual = 0.05133082398786708, Final residual = 3.514252558366337e-09, No Iterations 1
diagonal:  Solving for rho, Initial residual = 0, Final residual = 0, No Iterations 0
time step continuity errors : sum local = 2.575942417219872e-16, global = 2.2809634581539e-16, cumulative = -4.700101874908586e-15
DILUPBiCG:  Solving for p, Initial residual = 1.945176988833059e-08, Final residual = 9.755157512516327e-14, No Iterations 1
diagonal:  Solving for rho, Initial residual = 0, Final residual = 0, No Iterations 0
time step continuity errors : sum local = 2.516419817306488e-16, global = 2.420329669080989e-16, cumulative = -4.458068908000487e-15
DILUPBiCG:  Solving for k, Initial residual = 0.1188694303115765, Final residual = 2.372424693062811e-18, No Iterations 2
ExecutionTime = 292.25 s  ClockTime = 1424 s

ORIG_COMP_STEP = 7.973429190000047
ORIG_IO_STEP = 35.79050188100007
Courant Number mean: 8.003777904614622e-11 max: 0.0003207356037221297
deltaT = 1.848842588950363e-08
Time = 1.04931e-07

PIMPLE: iteration 1
diagonal:  Solving for rho, Initial residual = 0, Final residual = 0, No Iterations 0
DILUPBiCG:  Solving for Ux, Initial residual = 0.1713861148210206, Final residual = 4.178245957389626e-18, No Iterations 2
DILUPBiCG:  Solving for Uy, Initial residual = 0.1713861150134773, Final residual = 1.298362271130054e-18, No Iterations 2
DILUPBiCG:  Solving for Uz, Initial residual = 0.05065286776774058, Final residual = 1.366614450369378e-18, No Iterations 2
DILUPBiCG:  Solving for e, Initial residual = 0.05057599757636897, Final residual = 4.253724140727911e-18, No Iterations 2
DILUPBiCG:  Solving for p, Initial residual = 0.05063264718266371, Final residual = 4.998104562230019e-09, No Iterations 1
diagonal:  Solving for rho, Initial residual = 0, Final residual = 0, No Iterations 0
time step continuity errors : sum local = 3.242397100110975e-16, global = 2.957351574701031e-16, cumulative = -4.162333750530384e-15
DILUPBiCG:  Solving for p, Initial residual = 1.772506305649816e-08, Final residual = 1.059825066069121e-13, No Iterations 1
diagonal:  Solving for rho, Initial residual = 0, Final residual = 0, No Iterations 0
time step continuity errors : sum local = 2.778719220088263e-16, global = 2.754515640776696e-16, cumulative = -3.886882186452714e-15
DILUPBiCG:  Solving for k, Initial residual = 0.1156813247977045, Final residual = 4.737009222787004e-18, No Iterations 2
ExecutionTime = 302.05 s  ClockTime = 1477 s

ORIG_COMP_STEP = 9.67932845200005
ORIG_IO_STEP = 37.88613663499996
Courant Number mean: 9.605561431790114e-11 max: 0.0003847571616184496
deltaT = 2.218611106740435e-08
Time = 1.27117e-07

PIMPLE: iteration 1
diagonal:  Solving for rho, Initial residual = 0, Final residual = 0, No Iterations 0
DILUPBiCG:  Solving for Ux, Initial residual = 0.169765927369383, Final residual = 8.4859849999422e-18, No Iterations 2
DILUPBiCG:  Solving for Uy, Initial residual = 0.1697659275306559, Final residual = 2.296160797116055e-18, No Iterations 2
DILUPBiCG:  Solving for Uz, Initial residual = 0.05008106186530818, Final residual = 2.585149452196067e-18, No Iterations 2
DILUPBiCG:  Solving for e, Initial residual = 0.0499890507192208, Final residual = 8.219297611856866e-18, No Iterations 2
DILUPBiCG:  Solving for p, Initial residual = 0.050056991722435, Final residual = 7.126387002339464e-09, No Iterations 1
diagonal:  Solving for rho, Initial residual = 0, Final residual = 0, No Iterations 0
time step continuity errors : sum local = 3.052999832776108e-16, global = -2.113940314246621e-16, cumulative = -4.098276217877376e-15
DILUPBiCG:  Solving for p, Initial residual = 1.821492753142312e-08, Final residual = 1.303444905594661e-13, No Iterations 1
diagonal:  Solving for rho, Initial residual = 0, Final residual = 0, No Iterations 0
time step continuity errors : sum local = 2.482128036421883e-16, global = -2.350068181254468e-16, cumulative = -4.333283036002823e-15
DILUPBiCG:  Solving for k, Initial residual = 0.1130507276569847, Final residual = 9.717883491817364e-18, No Iterations 2
ExecutionTime = 320.18 s  ClockTime = 1535 s

ORIG_COMP_STEP = 18.05955713100002
ORIG_IO_STEP = 35.20735561600009
Courant Number mean: 1.152824207314931e-10 max: 0.0004615302830703812
deltaT = 2.662333328088522e-08
Time = 1.5374e-07

PIMPLE: iteration 1
diagonal:  Solving for rho, Initial residual = 0, Final residual = 0, No Iterations 0
DILUPBiCG:  Solving for Ux, Initial residual = 0.1684205374786854, Final residual = 1.79183241865462e-17, No Iterations 2
DILUPBiCG:  Solving for Uy, Initial residual = 0.1684205376101938, Final residual = 4.049279688955163e-18, No Iterations 2
DILUPBiCG:  Solving for Uz, Initial residual = 0.04960616796654243, Final residual = 4.931400891269769e-18, No Iterations 2
DILUPBiCG:  Solving for e, Initial residual = 0.04949604705826858, Final residual = 1.629671500302491e-17, No Iterations 2
DILUPBiCG:  Solving for p, Initial residual = 0.04957756202198278, Final residual = 1.018241859751957e-08, No Iterations 1
diagonal:  Solving for rho, Initial residual = 0, Final residual = 0, No Iterations 0
time step continuity errors : sum local = 7.039322884849616e-16, global = -5.711232652028121e-16, cumulative = -4.904406301205635e-15
DILUPBiCG:  Solving for p, Initial residual = 2.11501432832766e-08, Final residual = 1.816110899478707e-13, No Iterations 1
diagonal:  Solving for rho, Initial residual = 0, Final residual = 0, No Iterations 0
time step continuity errors : sum local = 5.893189580701729e-16, global = -5.878758279565748e-16, cumulative = -5.49228212916221e-15
DILUPBiCG:  Solving for k, Initial residual = 0.1108655252182563, Final residual = 2.042092350041394e-17, No Iterations 2
ExecutionTime = 337.57 s  ClockTime = 1590 s

ORIG_COMP_STEP = 17.320267704
ORIG_IO_STEP = 39.50097615000004
Courant Number mean: 1.383629975058204e-10 max: 0.0005535838593398169
deltaT = 3.194799993706226e-08
Time = 1.85688e-07

PIMPLE: iteration 1
diagonal:  Solving for rho, Initial residual = 0, Final residual = 0, No Iterations 0
DILUPBiCG:  Solving for Ux, Initial residual = 0.1672948382409627, Final residual = 4.289941060001061e-17, No Iterations 2
DILUPBiCG:  Solving for Uy, Initial residual = 0.1672948383352673, Final residual = 7.002461414296513e-18, No Iterations 2
DILUPBiCG:  Solving for Uz, Initial residual = 0.04920763851426577, Final residual = 9.426775450009461e-18, No Iterations 2
DILUPBiCG:  Solving for e, Initial residual = 0.04907589299988604, Final residual = 3.310025221891262e-17, No Iterations 2
DILUPBiCG:  Solving for p, Initial residual = 0.04917365416736819, Final residual = 1.457523797803762e-08, No Iterations 1
diagonal:  Solving for rho, Initial residual = 0, Final residual = 0, No Iterations 0
time step continuity errors : sum local = 3.089367083073794e-16, global = 1.517772766633482e-17, cumulative = -5.477104401495875e-15
DILUPBiCG:  Solving for p, Initial residual = 2.074055835426176e-08, Final residual = 2.146437865339362e-13, No Iterations 1
diagonal:  Solving for rho, Initial residual = 0, Final residual = 0, No Iterations 0
time step continuity errors : sum local = 1.193920570352737e-16, global = -5.701729602242046e-17, cumulative = -5.534121697518295e-15
DILUPBiCG:  Solving for k, Initial residual = 0.1090395594505092, Final residual = 4.382246151057996e-17, No Iterations 2
ExecutionTime = 345.53 s  ClockTime = 1645 s

ORIG_COMP_STEP = 7.802431960000035
ORIG_IO_STEP = 36.75614763700003
Courant Number mean: 1.660728675890121e-10 max: 0.0006639444024474662
deltaT = 3.833759992447472e-08
Time = 2.24026e-07

PIMPLE: iteration 1
diagonal:  Solving for rho, Initial residual = 0, Final residual = 0, No Iterations 0
DILUPBiCG:  Solving for Ux, Initial residual = 0.1663443696226498, Final residual = 1.092085850306945e-16, No Iterations 2
DILUPBiCG:  Solving for Uy, Initial residual = 0.1663443696658244, Final residual = 1.150691398387398e-17, No Iterations 2
DILUPBiCG:  Solving for Uz, Initial residual = 0.04886904905717997, Final residual = 1.789111320311171e-17, No Iterations 2
DILUPBiCG:  Solving for e, Initial residual = 0.04871149206766494, Final residual = 6.873426738920103e-17, No Iterations 2
DILUPBiCG:  Solving for p, Initial residual = 0.04882878955904445, Final residual = 2.089594097957567e-08, No Iterations 1
diagonal:  Solving for rho, Initial residual = 0, Final residual = 0, No Iterations 0
time step continuity errors : sum local = 4.537155635921404e-16, global = 1.863294722637865e-16, cumulative = -5.347792225254509e-15
DILUPBiCG:  Solving for p, Initial residual = 2.48273810290553e-08, Final residual = 3.106191962425454e-13, No Iterations 1
diagonal:  Solving for rho, Initial residual = 0, Final residual = 0, No Iterations 0
time step continuity errors : sum local = 1.321708083715268e-16, global = 7.732395793991728e-17, cumulative = -5.270468267314591e-15
DILUPBiCG:  Solving for k, Initial residual = 0.1075056068126045, Final residual = 9.575568157267321e-17, No Iterations 2
ExecutionTime = 353.21 s  ClockTime = 1696 s

ORIG_COMP_STEP = 7.55182722699999
ORIG_IO_STEP = 44.85616034299994
Courant Number mean: 1.993455053272234e-10 max: 0.0007962328698137064
deltaT = 4.600511990936966e-08
Time = 2.70031e-07

PIMPLE: iteration 1
diagonal:  Solving for rho, Initial residual = 0, Final residual = 0, No Iterations 0
DILUPBiCG:  Solving for Ux, Initial residual = 0.1655328069831474, Final residual = 3.103563544684604e-16, No Iterations 2
DILUPBiCG:  Solving for Uy, Initial residual = 0.165532806998105, Final residual = 1.668421852937394e-17, No Iterations 2
DILUPBiCG:  Solving for Uz, Initial residual = 0.04857703272959606, Final residual = 3.320103278268819e-17, No Iterations 2
DILUPBiCG:  Solving for e, Initial residual = 0.04838870428053853, Final residual = 1.456072334100643e-16, No Iterations 2
DILUPBiCG:  Solving for p, Initial residual = 0.04852949167942059, Final residual = 2.999952686423104e-08, No Iterations 1
diagonal:  Solving for rho, Initial residual = 0, Final residual = 0, No Iterations 0
time step continuity errors : sum local = 8.193640381473119e-16, global = -1.332268238776356e-16, cumulative = -5.403695091192227e-15
DILUPBiCG:  Solving for p, Initial residual = 3.254449100794174e-08, Final residual = 4.935084461813283e-13, No Iterations 1
diagonal:  Solving for rho, Initial residual = 0, Final residual = 0, No Iterations 0
time step continuity errors : sum local = 2.71717703531838e-16, global = -2.605657756118868e-16, cumulative = -5.664260866804113e-15
DILUPBiCG:  Solving for k, Initial residual = 0.1062105015765033, Final residual = 2.124682398555866e-16, No Iterations 2
ExecutionTime = 358.37 s  ClockTime = 1753 s

ORIG_COMP_STEP = 4.981644022999944
ORIG_IO_STEP = 41.47330574700004
Courant Number mean: 2.393056955281628e-10 max: 0.0009547802819188143
deltaT = 5.520614389124359e-08
Time = 3.25237e-07

PIMPLE: iteration 1
diagonal:  Solving for rho, Initial residual = 0, Final residual = 0, No Iterations 0
DILUPBiCG:  Solving for Ux, Initial residual = 0.164830050853582, Final residual = 1.289733292239506e-15, No Iterations 2
DILUPBiCG:  Solving for Uy, Initial residual = 0.1648300508341113, Final residual = 1.607999348282908e-17, No Iterations 2
DILUPBiCG:  Solving for Uz, Initial residual = 0.04832050178325895, Final residual = 5.848326888264651e-17, No Iterations 2
DILUPBiCG:  Solving for e, Initial residual = 0.04809548298762113, Final residual = 3.139542122519368e-16, No Iterations 2
DILUPBiCG:  Solving for p, Initial residual = 0.04826448188022087, Final residual = 4.312404212999838e-08, No Iterations 1
diagonal:  Solving for rho, Initial residual = 0, Final residual = 0, No Iterations 0
time step continuity errors : sum local = 1.143997302996497e-15, global = 4.182851211719313e-16, cumulative = -5.245975745632182e-15
DILUPBiCG:  Solving for p, Initial residual = 4.433054228413292e-08, Final residual = 8.172567902643e-13, No Iterations 1
diagonal:  Solving for rho, Initial residual = 0, Final residual = 0, No Iterations 0
time step continuity errors : sum local = 2.580874947595204e-16, global = 1.971621832784769e-16, cumulative = -5.048813562353706e-15
DILUPBiCG:  Solving for k, Initial residual = 0.1051116779572571, Final residual = 4.775459823665909e-16, No Iterations 2
ExecutionTime = 366.42 s  ClockTime = 1809 s

ORIG_COMP_STEP = 7.903219829999898
ORIG_IO_STEP = 46.36891734100004
Courant Number mean: 2.873106917251777e-10 max: 0.00114476605899442
deltaT = 6.62473726694923e-08
Time = 3.91484e-07

PIMPLE: iteration 1
diagonal:  Solving for rho, Initial residual = 0, Final residual = 0, No Iterations 0
DILUPBiCG:  Solving for Ux, Initial residual = 0.1642107801458426, Final residual = 1.326063543998289e-13, No Iterations 2
DILUPBiCG:  Solving for Uy, Initial residual = 0.1642107801191189, Final residual = 3.704748532887624e-17, No Iterations 2
DILUPBiCG:  Solving for Uz, Initial residual = 0.04809006679870984, Final residual = 1.408598340059373e-16, No Iterations 2
DILUPBiCG:  Solving for e, Initial residual = 0.04782151325812352, Final residual = 6.874120584660294e-16, No Iterations 2
DILUPBiCG:  Solving for p, Initial residual = 0.04802440726322518, Final residual = 6.206457309109931e-08, No Iterations 1
diagonal:  Solving for rho, Initial residual = 0, Final residual = 0, No Iterations 0
time step continuity errors : sum local = 1.837821883627429e-15, global = 6.346180990838207e-16, cumulative = -4.414195463269885e-15
DILUPBiCG:  Solving for p, Initial residual = 6.110996152498246e-08, Final residual = 3.517796710973355e-19, No Iterations 2
diagonal:  Solving for rho, Initial residual = 0, Final residual = 0, No Iterations 0
time step continuity errors : sum local = 2.285183852315949e-16, global = 2.205999730561161e-16, cumulative = -4.193595490213769e-15
DILUPBiCG:  Solving for k, Initial residual = 0.1041746805465184, Final residual = 1.084901616603405e-15, No Iterations 2
ExecutionTime = 374.5 s  ClockTime = 1872 s

ORIG_COMP_STEP = 7.892760374999853
ORIG_IO_STEP = 44.21631184599983
Courant Number mean: 3.450014602445645e-10 max: 0.001372384141132376
deltaT = 7.949684720339076e-08
Time = 4.70981e-07

PIMPLE: iteration 1
diagonal:  Solving for rho, Initial residual = 0, Final residual = 0, No Iterations 0
DILUPBiCG:  Solving for Ux, Initial residual = 0.1636533191580549, Final residual = 4.562013692224825e-15, No Iterations 2
DILUPBiCG:  Solving for Uy, Initial residual = 0.1636533191164857, Final residual = 2.21191333153765e-16, No Iterations 2
DILUPBiCG:  Solving for Uz, Initial residual = 0.04787759746855343, Final residual = 4.837631988964517e-16, No Iterations 2
DILUPBiCG:  Solving for e, Initial residual = 0.04755742324145331, Final residual = 1.524926747052601e-15, No Iterations 2
DILUPBiCG:  Solving for p, Initial residual = 0.0478010214595346, Final residual = 8.942720783121287e-08, No Iterations 1
diagonal:  Solving for rho, Initial residual = 0, Final residual = 0, No Iterations 0
time step continuity errors : sum local = 2.982187756504761e-15, global = 9.006235450958111e-16, cumulative = -3.292971945117958e-15
DILUPBiCG:  Solving for p, Initial residual = 8.723809610694919e-08, Final residual = 1.063513396123514e-18, No Iterations 2
diagonal:  Solving for rho, Initial residual = 0, Final residual = 0, No Iterations 0
time step continuity errors : sum local = 1.517250434833065e-16, global = 1.29654365526992e-16, cumulative = -3.163317579590966e-15
DILUPBiCG:  Solving for k, Initial residual = 0.1033713368762602, Final residual = 2.486692785471203e-15, No Iterations 2
ExecutionTime = 379.55 s  ClockTime = 1930 s

ORIG_COMP_STEP = 4.872334783000042
ORIG_IO_STEP = 35.52234468100005
Courant Number mean: 4.143672224737755e-10 max: 0.00164504366023771
deltaT = 9.53962166440689e-08
Time = 5.66377e-07

PIMPLE: iteration 1
diagonal:  Solving for rho, Initial residual = 0, Final residual = 0, No Iterations 0
DILUPBiCG:  Solving for Ux, Initial residual = 0.163138774951797, Final residual = 4.763103942566645e-15, No Iterations 2
DILUPBiCG:  Solving for Uy, Initial residual = 0.1631387749162936, Final residual = 8.814511547477071e-16, No Iterations 2
DILUPBiCG:  Solving for Uz, Initial residual = 0.04767588112637534, Final residual = 1.72094259438772e-15, No Iterations 2
DILUPBiCG:  Solving for e, Initial residual = 0.04729461807093025, Final residual = 3.419980164637187e-15, No Iterations 2
DILUPBiCG:  Solving for p, Initial residual = 0.04758710467501549, Final residual = 1.290015023576662e-07, No Iterations 1
diagonal:  Solving for rho, Initial residual = 0, Final residual = 0, No Iterations 0
time step continuity errors : sum local = 5.370969597247765e-15, global = 1.820307967858587e-15, cumulative = -1.343009611732379e-15
DILUPBiCG:  Solving for p, Initial residual = 1.245243321562895e-07, Final residual = 3.228778376265374e-18, No Iterations 2
diagonal:  Solving for rho, Initial residual = 0, Final residual = 0, No Iterations 0
time step continuity errors : sum local = 5.158457110860013e-16, global = 5.11769210259212e-16, cumulative = -8.31240401473167e-16
DILUPBiCG:  Solving for k, Initial residual = 0.1026783998743325, Final residual = 5.741875310265617e-15, No Iterations 2
ExecutionTime = 395.97 s  ClockTime = 1989 s

ORIG_COMP_STEP = 16.3333336029998
ORIG_IO_STEP = 41.66415677600003
Courant Number mean: 4.978279185860114e-10 max: 0.001971613580789128
deltaT = 1.144754599728827e-07
Time = 6.80853e-07

PIMPLE: iteration 1
diagonal:  Solving for rho, Initial residual = 0, Final residual = 0, No Iterations 0
DILUPBiCG:  Solving for Ux, Initial residual = 0.1626503559509506, Final residual = 1.454044856454546e-14, No Iterations 2
DILUPBiCG:  Solving for Uy, Initial residual = 0.1626503559255601, Final residual = 3.07413356598894e-15, No Iterations 2
DILUPBiCG:  Solving for Uz, Initial residual = 0.04747836412231064, Final residual = 7.187055539494289e-15, No Iterations 2
DILUPBiCG:  Solving for e, Initial residual = 0.04702507386572545, Final residual = 7.738779168396105e-15, No Iterations 2
DILUPBiCG:  Solving for p, Initial residual = 0.04737622247984489, Final residual = 1.863073873088207e-07, No Iterations 1
diagonal:  Solving for rho, Initial residual = 0, Final residual = 0, No Iterations 0
time step continuity errors : sum local = 8.583078631415716e-15, global = 2.145099445646642e-15, cumulative = 1.313859044173475e-15
DILUPBiCG:  Solving for p, Initial residual = 1.807274861916513e-07, Final residual = 1.000903742282634e-17, No Iterations 2
diagonal:  Solving for rho, Initial residual = 0, Final residual = 0, No Iterations 0
time step continuity errors : sum local = 1.786084260548672e-16, global = -1.409426584620787e-16, cumulative = 1.172916385711396e-15
DILUPBiCG:  Solving for k, Initial residual = 0.1020765299985936, Final residual = 1.334021413058829e-14, No Iterations 2
ExecutionTime = 400.88 s  ClockTime = 2043 s

ORIG_COMP_STEP = 4.73920665799983
ORIG_IO_STEP = 42.69799297399982
Courant Number mean: 5.983413991460573e-10 max: 0.00236272496430634
deltaT = 1.373705519674592e-07
Time = 8.18223e-07

PIMPLE: iteration 1
diagonal:  Solving for rho, Initial residual = 0, Final residual = 0, No Iterations 0
DILUPBiCG:  Solving for Ux, Initial residual = 0.1621728487400518, Final residual = 4.267762644557295e-14, No Iterations 2
DILUPBiCG:  Solving for Uy, Initial residual = 0.1621728487219054, Final residual = 1.005983107086726e-14, No Iterations 2
DILUPBiCG:  Solving for Uz, Initial residual = 0.04727895784674663, Final residual = 9.9804454923927e-14, No Iterations 2
DILUPBiCG:  Solving for e, Initial residual = 0.04674099542157382, Final residual = 1.763641677168831e-14, No Iterations 2
DILUPBiCG:  Solving for p, Initial residual = 0.04716250311341241, Final residual = 2.694003589864613e-07, No Iterations 1
diagonal:  Solving for rho, Initial residual = 0, Final residual = 0, No Iterations 0
time step continuity errors : sum local = 1.481387686610609e-14, global = 4.261688419035255e-15, cumulative = 5.434604804746651e-15
DILUPBiCG:  Solving for p, Initial residual = 2.64093511224667e-07, Final residual = 3.139906981113812e-17, No Iterations 2
diagonal:  Solving for rho, Initial residual = 0, Final residual = 0, No Iterations 0
time step continuity errors : sum local = 2.493345396355439e-16, global = 2.330863553714991e-16, cumulative = 5.66769116011815e-15
DILUPBiCG:  Solving for k, Initial residual = 0.1015495393577151, Final residual = 3.115656250188421e-14, No Iterations 2
ExecutionTime = 414.39 s  ClockTime = 2100 s

ORIG_COMP_STEP = 13.39547483199999
ORIG_IO_STEP = 41.55364286600002
Courant Number mean: 7.195455705432869e-10 max: 0.002831151431733677
deltaT = 1.64844662360951e-07
Time = 9.83068e-07

PIMPLE: iteration 1
diagonal:  Solving for rho, Initial residual = 0, Final residual = 0, No Iterations 0
DILUPBiCG:  Solving for Ux, Initial residual = 0.1616922461057362, Final residual = 1.270743434895365e-13, No Iterations 2
DILUPBiCG:  Solving for Uy, Initial residual = 0.1616922460951264, Final residual = 3.176629835338786e-14, No Iterations 2
DILUPBiCG:  Solving for Uz, Initial residual = 0.04707190609618853, Final residual = 5.035524996573428e-14, No Iterations 2
DILUPBiCG:  Solving for e, Initial residual = 0.04643484601030687, Final residual = 4.041512971046106e-14, No Iterations 2
DILUPBiCG:  Solving for p, Initial residual = 0.04694064174604106, Final residual = 3.900602784852925e-07, No Iterations 1
diagonal:  Solving for rho, Initial residual = 0, Final residual = 0, No Iterations 0
time step continuity errors : sum local = 2.548467990690993e-14, global = 7.349972831662883e-15, cumulative = 1.301766399178103e-14
DILUPBiCG:  Solving for p, Initial residual = 3.875952326419842e-07, Final residual = 9.949005194250124e-17, No Iterations 2
diagonal:  Solving for rho, Initial residual = 0, Final residual = 0, No Iterations 0
time step continuity errors : sum local = 2.011452036117613e-16, global = 1.951839099631491e-16, cumulative = 1.321284790174418e-14
DILUPBiCG:  Solving for k, Initial residual = 0.1010838117188573, Final residual = 7.310055526604219e-14, No Iterations 2
ExecutionTime = 423.68 s  ClockTime = 2158 s

ORIG_COMP_STEP = 9.153142675000026
ORIG_IO_STEP = 44.69305469999995
Courant Number mean: 8.65951125284985e-10 max: 0.003392299833723801
deltaT = 1.978135948331412e-07
Time = 1.18088e-06

PIMPLE: iteration 1
diagonal:  Solving for rho, Initial residual = 0, Final residual = 0, No Iterations 0
DILUPBiCG:  Solving for Ux, Initial residual = 0.161195514492289, Final residual = 3.890064095781743e-13, No Iterations 2
DILUPBiCG:  Solving for Uy, Initial residual = 0.1611955144864871, Final residual = 9.812912599132428e-14, No Iterations 2
DILUPBiCG:  Solving for Uz, Initial residual = 0.04685172165458057, Final residual = 6.722918697131728e-14, No Iterations 2
DILUPBiCG:  Solving for e, Initial residual = 0.04609927525000759, Final residual = 9.299783885430582e-14, No Iterations 2
DILUPBiCG:  Solving for p, Initial residual = 0.04670584521101119, Final residual = 5.65549548207754e-07, No Iterations 1
diagonal:  Solving for rho, Initial residual = 0, Final residual = 0, No Iterations 0
time step continuity errors : sum local = 4.438072736147746e-14, global = 1.206510423423217e-14, cumulative = 2.527795213597635e-14
DILUPBiCG:  Solving for p, Initial residual = 5.70243331292313e-07, Final residual = 3.180585480565858e-16, No Iterations 2
diagonal:  Solving for rho, Initial residual = 0, Final residual = 0, No Iterations 0
time step continuity errors : sum local = 5.892696866232997e-16, global = -5.882117662855739e-16, cumulative = 2.468974036969077e-14
DILUPBiCG:  Solving for k, Initial residual = 0.1006678785713332, Final residual = 1.73107648320994e-13, No Iterations 2
ExecutionTime = 430.09 s  ClockTime = 2221 s

ORIG_COMP_STEP = 6.215992535000169
ORIG_IO_STEP = 41.16006970300009
Courant Number mean: 1.043209082727101e-09 max: 0.004064862143466291
deltaT = 2.373763137997695e-07
Time = 1.41826e-06

PIMPLE: iteration 1
diagonal:  Solving for rho, Initial residual = 0, Final residual = 0, No Iterations 0
DILUPBiCG:  Solving for Ux, Initial residual = 0.1606705199296088, Final residual = 4.101939516610196e-19, No Iterations 3
[...]
DILUPBiCG:  Solving for k, Initial residual = 0.03849433065001841, Final residual = 1.286059851754163e-13, No Iterations 5
ExecutionTime = 428.22 s  ClockTime = 820 s

ORIG_COMP_STEP = 5.397586700999909
ORIG_IO_STEP = 4.65022180099993
Courant Number mean: 1.473438209190453e-07 max: 0.2063896675671205
deltaT = 3.97871658733978e-06
Time = 5.73405e-05

PIMPLE: iteration 1
diagonal:  Solving for rho, Initial residual = 0, Final residual = 0, No Iterations 0
DILUPBiCG:  Solving for Ux, Initial residual = 0.06797211180998486, Final residual = 5.484406956959862e-14, No Iterations 6
DILUPBiCG:  Solving for Uy, Initial residual = 0.0679734853416851, Final residual = 1.750892285043896e-14, No Iterations 6
DILUPBiCG:  Solving for Uz, Initial residual = 0.02491213682772107, Final residual = 5.828618469012957e-13, No Iterations 5
DILUPBiCG:  Solving for e, Initial residual = 0.02231041460975104, Final residual = 4.278382847259825e-13, No Iterations 5
DILUPBiCG:  Solving for p, Initial residual = 0.0259972957817458, Final residual = 0.0001404545017254006, No Iterations 1
diagonal:  Solving for rho, Initial residual = 0, Final residual = 0, No Iterations 0
time step continuity errors : sum local = 4.512139710746737e-10, global = -1.04060112183825e-10, cumulative = -1.532860668647348e-10
DILUPBiCG:  Solving for p, Initial residual = 0.0004617068691617508, Final residual = 2.065684685500075e-13, No Iterations 5
diagonal:  Solving for rho, Initial residual = 0, Final residual = 0, No Iterations 0
time step continuity errors : sum local = 1.730825147876428e-16, global = -5.318513399435044e-17, cumulative = -1.532861200498688e-10
DILUPBiCG:  Solving for k, Initial residual = 0.03479059276514492, Final residual = 2.051834591071672e-13, No Iterations 5
ExecutionTime = 436.74 s  ClockTime = 833 s

ORIG_COMP_STEP = 8.463543639000022
ORIG_IO_STEP = 5.167974411000046
Courant Number mean: 1.585955772169262e-07 max: 0.2053656070802526
deltaT = 3.874764274219452e-06
Time = 6.12153e-05

PIMPLE: iteration 1
diagonal:  Solving for rho, Initial residual = 0, Final residual = 0, No Iterations 0
DILUPBiCG:  Solving for Ux, Initial residual = 0.06246961239986124, Final residual = 1.742989735244148e-14, No Iterations 6
DILUPBiCG:  Solving for Uy, Initial residual = 0.06247027868995716, Final residual = 9.091665451204975e-13, No Iterations 5
DILUPBiCG:  Solving for Uz, Initial residual = 0.02284756450645534, Final residual = 5.164598169513328e-13, No Iterations 5
DILUPBiCG:  Solving for e, Initial residual = 0.0202804311967703, Final residual = 4.024787611569062e-13, No Iterations 5
DILUPBiCG:  Solving for p, Initial residual = 0.02434698681550997, Final residual = 0.0001167420607436025, No Iterations 1
diagonal:  Solving for rho, Initial residual = 0, Final residual = 0, No Iterations 0
time step continuity errors : sum local = 4.013461271319434e-10, global = -6.876655140507955e-11, cumulative = -2.220526714549483e-10
DILUPBiCG:  Solving for p, Initial residual = 0.0002307167786846758, Final residual = 5.674051303408705e-14, No Iterations 5
diagonal:  Solving for rho, Initial residual = 0, Final residual = 0, No Iterations 0
time step continuity errors : sum local = 1.650413567869285e-16, global = -1.374945014497817e-17, cumulative = -2.220526852043985e-10
DILUPBiCG:  Solving for k, Initial residual = 0.03190306774508721, Final residual = 3.279541830935054e-13, No Iterations 5
ExecutionTime = 449.22 s  ClockTime = 850 s

ORIG_COMP_STEP = 12.38441080000007
ORIG_IO_STEP = 8.270431845000076
Courant Number mean: 1.698545696249016e-07 max: 0.2046286368113485
deltaT = 3.787118298395019e-06
Time = 6.50024e-05

PIMPLE: iteration 1
diagonal:  Solving for rho, Initial residual = 0, Final residual = 0, No Iterations 0
DILUPBiCG:  Solving for Ux, Initial residual = 0.05770722535825953, Final residual = 1.157718904320747e-14, No Iterations 6
DILUPBiCG:  Solving for Uy, Initial residual = 0.05770736780372557, Final residual = 7.57182257087715e-13, No Iterations 5
DILUPBiCG:  Solving for Uz, Initial residual = 0.02132611034672416, Final residual = 4.686282536771141e-13, No Iterations 5
DILUPBiCG:  Solving for e, Initial residual = 0.01903718209077193, Final residual = 3.691615688540632e-13, No Iterations 5
DILUPBiCG:  Solving for p, Initial residual = 0.02576727346598166, Final residual = 0.0001154352727898743, No Iterations 1
diagonal:  Solving for rho, Initial residual = 0, Final residual = 0, No Iterations 0
time step continuity errors : sum local = 4.223981033401288e-10, global = -6.811967546880143e-11, cumulative = -2.901723606731999e-10
DILUPBiCG:  Solving for p, Initial residual = 0.0002155600172118424, Final residual = 2.188628704610594e-14, No Iterations 5
diagonal:  Solving for rho, Initial residual = 0, Final residual = 0, No Iterations 0
time step continuity errors : sum local = 1.653782858471437e-16, global = -4.155922652168583e-17, cumulative = -2.901724022324265e-10
DILUPBiCG:  Solving for k, Initial residual = 0.02943851975904592, Final residual = 4.133420411903303e-13, No Iterations 5
ExecutionTime = 459.18 s  ClockTime = 869 s

ORIG_COMP_STEP = 9.889401550000002
ORIG_IO_STEP = 9.189646627999991
Courant Number mean: 1.802312771469967e-07 max: 0.2040813681832128
deltaT = 3.711380742013782e-06
Time = 6.87138e-05

PIMPLE: iteration 1
diagonal:  Solving for rho, Initial residual = 0, Final residual = 0, No Iterations 0
DILUPBiCG:  Solving for Ux, Initial residual = 0.053496137940491, Final residual = 1.220329785612507e-14, No Iterations 6
DILUPBiCG:  Solving for Uy, Initial residual = 0.05349625743207047, Final residual = 6.655992687275418e-13, No Iterations 5
DILUPBiCG:  Solving for Uz, Initial residual = 0.01967647956120624, Final residual = 4.175839615607569e-13, No Iterations 5
DILUPBiCG:  Solving for e, Initial residual = 0.01905394166960119, Final residual = 3.104886425892904e-13, No Iterations 5
DILUPBiCG:  Solving for p, Initial residual = 0.02548182909831997, Final residual = 0.0001133821863610134, No Iterations 1
diagonal:  Solving for rho, Initial residual = 0, Final residual = 0, No Iterations 0
time step continuity errors : sum local = 4.395743298723559e-10, global = -8.350734892354528e-11, cumulative = -3.736797511559717e-10
DILUPBiCG:  Solving for p, Initial residual = 0.0005824610030157237, Final residual = 2.563862224296799e-14, No Iterations 5
diagonal:  Solving for rho, Initial residual = 0, Final residual = 0, No Iterations 0
time step continuity errors : sum local = 1.729412016450367e-16, global = 6.446630350737083e-17, cumulative = -3.736796866896682e-10
DILUPBiCG:  Solving for k, Initial residual = 0.02732367220686166, Final residual = 4.182955858421998e-13, No Iterations 5
ExecutionTime = 463.36 s  ClockTime = 882 s

ORIG_COMP_STEP = 4.09103534999997
ORIG_IO_STEP = 4.745904010999993
Courant Number mean: 1.907895783026283e-07 max: 0.2036169412218448
deltaT = 3.645453781736304e-06
Time = 7.23592e-05

PIMPLE: iteration 1
diagonal:  Solving for rho, Initial residual = 0, Final residual = 0, No Iterations 0
DILUPBiCG:  Solving for Ux, Initial residual = 0.04991938400078124, Final residual = 1.178510850068739e-14, No Iterations 6
DILUPBiCG:  Solving for Uy, Initial residual = 0.04991925213202397, Final residual = 5.832045610503625e-13, No Iterations 5
DILUPBiCG:  Solving for Uz, Initial residual = 0.01818879229190792, Final residual = 3.554602304724509e-13, No Iterations 5
DILUPBiCG:  Solving for e, Initial residual = 0.01852196771303345, Final residual = 2.375180712270687e-13, No Iterations 5
DILUPBiCG:  Solving for p, Initial residual = 0.02388404551024382, Final residual = 0.0001060067665775299, No Iterations 1
diagonal:  Solving for rho, Initial residual = 0, Final residual = 0, No Iterations 0
time step continuity errors : sum local = 4.337208974178594e-10, global = -9.767465356614857e-11, cumulative = -4.713543402558168e-10
DILUPBiCG:  Solving for p, Initial residual = 0.0003877428677131328, Final residual = 1.213029296818386e-14, No Iterations 5
diagonal:  Solving for rho, Initial residual = 0, Final residual = 0, No Iterations 0
time step continuity errors : sum local = 1.735793171939154e-16, global = -4.602017005953034e-18, cumulative = -4.713543448578338e-10
DILUPBiCG:  Solving for k, Initial residual = 0.02548478140721081, Final residual = 3.764566797918231e-13, No Iterations 5
ExecutionTime = 467.39 s  ClockTime = 891 s

ORIG_COMP_STEP = 3.981708770999944
ORIG_IO_STEP = 11.58242882400009
Courant Number mean: 2.023559754652649e-07 max: 0.2031695483025973
deltaT = 3.588582848357578e-06
Time = 7.59478e-05

PIMPLE: iteration 1
diagonal:  Solving for rho, Initial residual = 0, Final residual = 0, No Iterations 0
DILUPBiCG:  Solving for Ux, Initial residual = 0.04692874353291979, Final residual = 8.169771223553751e-13, No Iterations 5
DILUPBiCG:  Solving for Uy, Initial residual = 0.04692914701383307, Final residual = 5.125999488285652e-13, No Iterations 5
DILUPBiCG:  Solving for Uz, Initial residual = 0.01709415626072542, Final residual = 3.033022633484839e-13, No Iterations 5
DILUPBiCG:  Solving for e, Initial residual = 0.01746965809601838, Final residual = 1.720804937832283e-13, No Iterations 5
DILUPBiCG:  Solving for p, Initial residual = 0.02224202677587487, Final residual = 8.878802061049057e-05, No Iterations 1
diagonal:  Solving for rho, Initial residual = 0, Final residual = 0, No Iterations 0
time step continuity errors : sum local = 3.820835248888128e-10, global = -8.17873009293935e-11, cumulative = -5.531416457872273e-10
DILUPBiCG:  Solving for p, Initial residual = 0.0002229183773048086, Final residual = 4.225066794000604e-14, No Iterations 5
diagonal:  Solving for rho, Initial residual = 0, Final residual = 0, No Iterations 0
time step continuity errors : sum local = 1.799014718420614e-16, global = -2.3438266011624e-17, cumulative = -5.531416692254933e-10
DILUPBiCG:  Solving for k, Initial residual = 0.02387098657792067, Final residual = 6.807815874069983e-13, No Iterations 5
ExecutionTime = 471.28 s  ClockTime = 907 s

ORIG_COMP_STEP = 3.765641021999954
ORIG_IO_STEP = 3.365707000999919
Courant Number mean: 2.141946640074922e-07 max: 0.1997086115072027
deltaT = 3.593818835627059e-06
Time = 7.95416e-05

PIMPLE: iteration 1
diagonal:  Solving for rho, Initial residual = 0, Final residual = 0, No Iterations 0
DILUPBiCG:  Solving for Ux, Initial residual = 0.04484551354389949, Final residual = 7.611070921979456e-13, No Iterations 5
DILUPBiCG:  Solving for Uy, Initial residual = 0.04484633124555695, Final residual = 5.102600406433429e-13, No Iterations 5
DILUPBiCG:  Solving for Uz, Initial residual = 0.01645885567265466, Final residual = 3.148299779207435e-13, No Iterations 5
DILUPBiCG:  Solving for e, Initial residual = 0.0165872877586621, Final residual = 1.449277223807818e-13, No Iterations 5
DILUPBiCG:  Solving for p, Initial residual = 0.0223804607285486, Final residual = 8.108066248428098e-05, No Iterations 1
diagonal:  Solving for rho, Initial residual = 0, Final residual = 0, No Iterations 0
time step continuity errors : sum local = 3.659987852036894e-10, global = -6.760766459082564e-11, cumulative = -6.20749333816319e-10
DILUPBiCG:  Solving for p, Initial residual = 0.0002458947528203774, Final residual = 5.760234861993464e-14, No Iterations 5
diagonal:  Solving for rho, Initial residual = 0, Final residual = 0, No Iterations 0
time step continuity errors : sum local = 1.781903724361166e-16, global = -2.260974172798168e-17, cumulative = -6.207493564260607e-10
DILUPBiCG:  Solving for k, Initial residual = 0.02276477901191654, Final residual = 4.571284960047434e-15, No Iterations 6
ExecutionTime = 481.96 s  ClockTime = 921 s

ORIG_COMP_STEP = 10.69775368699993
ORIG_IO_STEP = 4.919276225999965
Courant Number mean: 2.292473122199773e-07 max: 0.1960073616037833
deltaT = 3.667024346658695e-06
Time = 8.32086e-05

PIMPLE: iteration 1
diagonal:  Solving for rho, Initial residual = 0, Final residual = 0, No Iterations 0
DILUPBiCG:  Solving for Ux, Initial residual = 0.04363567282204788, Final residual = 8.519491328635094e-13, No Iterations 5
DILUPBiCG:  Solving for Uy, Initial residual = 0.04363665139814285, Final residual = 5.890304076201878e-13, No Iterations 5
DILUPBiCG:  Solving for Uz, Initial residual = 0.016375632876812, Final residual = 4.366556662417451e-13, No Iterations 5
DILUPBiCG:  Solving for e, Initial residual = 0.01737623932129836, Final residual = 1.854229601721028e-13, No Iterations 5
DILUPBiCG:  Solving for p, Initial residual = 0.02396012081385799, Final residual = 9.103348000327865e-05, No Iterations 1
diagonal:  Solving for rho, Initial residual = 0, Final residual = 0, No Iterations 0
time step continuity errors : sum local = 4.303075995957825e-10, global = -8.190427764007429e-11, cumulative = -7.02653634066135e-10
DILUPBiCG:  Solving for p, Initial residual = 0.0002976080196337642, Final residual = 1.157177956142263e-14, No Iterations 5
diagonal:  Solving for rho, Initial residual = 0, Final residual = 0, No Iterations 0
time step continuity errors : sum local = 1.767767803123997e-16, global = -5.107061094644565e-17, cumulative = -7.02653685136746e-10
DILUPBiCG:  Solving for k, Initial residual = 0.02220238469377597, Final residual = 7.582072313644224e-15, No Iterations 6
ExecutionTime = 489.25 s  ClockTime = 934 s

ORIG_COMP_STEP = 7.23635905399999
ORIG_IO_STEP = 10.97660974899998
Courant Number mean: 2.494080466269986e-07 max: 0.1955267927015415
deltaT = 3.75091750444262e-06
Time = 8.69595e-05

PIMPLE: iteration 1
diagonal:  Solving for rho, Initial residual = 0, Final residual = 0, No Iterations 0
DILUPBiCG:  Solving for Ux, Initial residual = 0.04250738378835331, Final residual = 9.796981444205988e-13, No Iterations 5
DILUPBiCG:  Solving for Uy, Initial residual = 0.04250865613747426, Final residual = 7.03639671479687e-13, No Iterations 5
DILUPBiCG:  Solving for Uz, Initial residual = 0.01616907611200927, Final residual = 7.891580022482084e-13, No Iterations 5
DILUPBiCG:  Solving for e, Initial residual = 0.0182019166290955, Final residual = 2.488985918470802e-13, No Iterations 5
DILUPBiCG:  Solving for p, Initial residual = 0.02418713757031187, Final residual = 9.862099816635984e-05, No Iterations 1
diagonal:  Solving for rho, Initial residual = 0, Final residual = 0, No Iterations 0
time step continuity errors : sum local = 4.87656797116286e-10, global = -1.021932169728331e-10, cumulative = -8.048469021095791e-10
DILUPBiCG:  Solving for p, Initial residual = 0.0004857528474706564, Final residual = 5.024693378892609e-14, No Iterations 5
diagonal:  Solving for rho, Initial residual = 0, Final residual = 0, No Iterations 0
time step continuity errors : sum local = 1.658429477822502e-16, global = -1.301372671795755e-17, cumulative = -8.048469151233058e-10
DILUPBiCG:  Solving for k, Initial residual = 0.02173475686323931, Final residual = 1.373278286037965e-14, No Iterations 6
ExecutionTime = 494.74 s  ClockTime = 950 s

ORIG_COMP_STEP = 5.293939210999952
ORIG_IO_STEP = 6.703730223999969
Courant Number mean: 2.728972829324524e-07 max: 0.2048890300403108
deltaT = 3.661413696677298e-06
Time = 9.0621e-05

PIMPLE: iteration 1
diagonal:  Solving for rho, Initial residual = 0, Final residual = 0, No Iterations 0
DILUPBiCG:  Solving for Ux, Initial residual = 0.03977374086093344, Final residual = 8.490954583161702e-13, No Iterations 5
DILUPBiCG:  Solving for Uy, Initial residual = 0.03977465285863526, Final residual = 6.440906194833687e-13, No Iterations 5
DILUPBiCG:  Solving for Uz, Initial residual = 0.01524439434933902, Final residual = 1.185509170145134e-14, No Iterations 6
DILUPBiCG:  Solving for e, Initial residual = 0.01741811144384157, Final residual = 3.000405639703463e-13, No Iterations 5
DILUPBiCG:  Solving for p, Initial residual = 0.02242935005028077, Final residual = 8.941983971817423e-05, No Iterations 1
diagonal:  Solving for rho, Initial residual = 0, Final residual = 0, No Iterations 0
time step continuity errors : sum local = 4.619431945006274e-10, global = -1.103491809939939e-10, cumulative = -9.151960961172997e-10
DILUPBiCG:  Solving for p, Initial residual = 0.0002597653444465138, Final residual = 1.285891994417775e-13, No Iterations 5
diagonal:  Solving for rho, Initial residual = 0, Final residual = 0, No Iterations 0
time step continuity errors : sum local = 1.704528899798718e-16, global = -1.892187090394791e-17, cumulative = -9.151961150391706e-10
DILUPBiCG:  Solving for k, Initial residual = 0.02039485125879119, Final residual = 5.631697773921299e-13, No Iterations 5
ExecutionTime = 502.18 s  ClockTime = 965 s

ORIG_COMP_STEP = 7.408508294000058
ORIG_IO_STEP = 4.055737192000038
Courant Number mean: 2.846667310626089e-07 max: 0.2070327018830589
deltaT = 3.537038992753334e-06
Time = 9.4158e-05

PIMPLE: iteration 1
diagonal:  Solving for rho, Initial residual = 0, Final residual = 0, No Iterations 0
DILUPBiCG:  Solving for Ux, Initial residual = 0.03701894553279192, Final residual = 6.533910529409547e-13, No Iterations 5
DILUPBiCG:  Solving for Uy, Initial residual = 0.03701945904307409, Final residual = 5.162541636320194e-13, No Iterations 5
DILUPBiCG:  Solving for Uz, Initial residual = 0.01438754726330218, Final residual = 8.996588979503505e-15, No Iterations 6
DILUPBiCG:  Solving for e, Initial residual = 0.01620653891237194, Final residual = 2.70765267413819e-13, No Iterations 5
DILUPBiCG:  Solving for p, Initial residual = 0.02151546824429882, Final residual = 8.101755509223189e-05, No Iterations 1
diagonal:  Solving for rho, Initial residual = 0, Final residual = 0, No Iterations 0
time step continuity errors : sum local = 4.360912302631149e-10, global = -1.237049459968195e-10, cumulative = -1.03890106103599e-09
DILUPBiCG:  Solving for p, Initial residual = 0.0002993833584501562, Final residual = 3.777765951077022e-14, No Iterations 5
diagonal:  Solving for rho, Initial residual = 0, Final residual = 0, No Iterations 0
time step continuity errors : sum local = 1.868463334593078e-16, global = -5.913927444260055e-17, cumulative = -1.038901120175265e-09
DILUPBiCG:  Solving for k, Initial residual = 0.01902470130678422, Final residual = 2.077554609922672e-13, No Iterations 5
ExecutionTime = 509.48 s  ClockTime = 976 s

ORIG_COMP_STEP = 7.234575300000074
ORIG_IO_STEP = 7.987774867999974
Courant Number mean: 2.918923052401457e-07 max: 0.2053311896376299
deltaT = 3.445203818275743e-06
Time = 9.76032e-05

PIMPLE: iteration 1
diagonal:  Solving for rho, Initial residual = 0, Final residual = 0, No Iterations 0
DILUPBiCG:  Solving for Ux, Initial residual = 0.03477209276723204, Final residual = 5.388416451945468e-13, No Iterations 5
DILUPBiCG:  Solving for Uy, Initial residual = 0.03477226721689503, Final residual = 4.159796600680138e-13, No Iterations 5
DILUPBiCG:  Solving for Uz, Initial residual = 0.01380965765511345, Final residual = 6.872623059950282e-15, No Iterations 6
DILUPBiCG:  Solving for e, Initial residual = 0.01571280621828505, Final residual = 2.819232832339348e-13, No Iterations 5
DILUPBiCG:  Solving for p, Initial residual = 0.0211635461768178, Final residual = 7.464844629116671e-05, No Iterations 1
diagonal:  Solving for rho, Initial residual = 0, Final residual = 0, No Iterations 0
time step continuity errors : sum local = 4.175215633519907e-10, global = -1.188529164542948e-10, cumulative = -1.157754036629559e-09
DILUPBiCG:  Solving for p, Initial residual = 0.0002451250090366069, Final residual = 3.725399257613588e-13, No Iterations 5
diagonal:  Solving for rho, Initial residual = 0, Final residual = 0, No Iterations 0
time step continuity errors : sum local = 1.967892613308003e-16, global = -2.514662407699919e-17, cumulative = -1.157754061776183e-09
DILUPBiCG:  Solving for k, Initial residual = 0.01789252476102444, Final residual = 7.976850938205312e-13, No Iterations 5
ExecutionTime = 514.4 s  ClockTime = 989 s

ORIG_COMP_STEP = 4.863923223999905
ORIG_IO_STEP = 3.381379561000017
