/*---------------------------------------------------------------------------*\
| =========                 |                                                 |
| \\      /  F ield         | OpenFOAM: The Open Source CFD Toolbox           |
|  \\    /   O peration     | Version:  v1912                                 |
|   \\  /    A nd           | Website:  www.openfoam.com                      |
|    \\/     M anipulation  |                                                 |
\*---------------------------------------------------------------------------*/
Build  : _f3950763fe-20191219 OPENFOAM=1912
Arch   : "LSB;label=32;scalar=64"
Exec   : rhoPimpleAPIO_METRICS -parallel
Date   : Nov 17 2020
Time   : 16:53:51
Host   : s24r2b69
PID    : 239505
I/O    : uncollated
Case   : /gpfs/scratch/pr1ejg00/pr1ejg20/openfoam/apio_64M/96
nProcs : 96
Hosts  :
(
    (s24r2b69 48)
    (s24r2b70 48)
)
Pstream initialized with:
    floatTransfer      : 0
    nProcsSimpleSum    : 0
    commsType          : nonBlocking
    polling iterations : 0
trapFpe: Floating point exception trapping enabled (FOAM_SIGFPE).
fileModificationChecking : Monitoring run-time modified files using timeStampMaster (fileModificationSkew 10)
allowSystemOperations : Allowing user-supplied system call operations

// * * * * * * * * * * * * * * * * * * * * * * * * * * * * * * * * * * * * * //
Create time

Create mesh for time = 0


PIMPLE: Operating solver in PISO mode

Reading thermophysical properties

Selecting thermodynamics package 
{
    type            hePsiThermo;
    mixture         pureMixture;
    transport       const;
    thermo          eConst;
    equationOfState perfectGas;
    specie          specie;
    energy          sensibleInternalEnergy;
}

Reading field U

Reading/calculating face flux field phi

--> FOAM Warning : 
    From function Foam::pressureControl::pressureControl(const Foam::GeometricField<double, Foam::fvPatchField, Foam::volMesh> &, const Foam::GeometricField<double, Foam::fvPatchField, Foam::volMesh> &, const Foam::dictionary &, bool)
    in file cfdTools/general/pressureControl/pressureControl.C at line 123
    Reading "/gpfs/scratch/pr1ejg00/pr1ejg20/openfoam/apio_64M/96/system/fvSolution.PIMPLE"
    'rhoMax' specified rather than 'pMax' or 'pMaxFactor'
    This is supported for backward-compatibility but 'pMax' or 'pMaxFactor' are more reliable.
--> FOAM Warning : 
    From function Foam::pressureControl::pressureControl(const Foam::GeometricField<double, Foam::fvPatchField, Foam::volMesh> &, const Foam::GeometricField<double, Foam::fvPatchField, Foam::volMesh> &, const Foam::dictionary &, bool)
    in file cfdTools/general/pressureControl/pressureControl.C at line 178
    Reading "/gpfs/scratch/pr1ejg00/pr1ejg20/openfoam/apio_64M/96/system/fvSolution.PIMPLE"
    'rhoMin' specified rather than 'pMin' or 'pMinFactor'
    This is supported for backward-compatibility but 'pMin' or 'pMinFactor' are more reliable.
pressureControl
    pMax 1726187.557059955
    pMin 4747.015781914877

Creating turbulence model

Selecting turbulence model type LES
Selecting LES turbulence model kEqn
Selecting LES delta type cubeRootVol
LES
{
    LESModel        kEqn;
    turbulence      on;
    printCoeffs     on;
    delta           cubeRootVol;
    cubeRootVolCoeffs
    {
        deltaCoeff      1;
    }
    PrandtlCoeffs
    {
        delta           cubeRootVol;
        cubeRootVolCoeffs
        {
            deltaCoeff      1;
        }
        smoothCoeffs
        {
            delta           cubeRootVol;
            cubeRootVolCoeffs
            {
                deltaCoeff      1;
            }
            maxDeltaRatio   1.1;
        }
        Cdelta          0.158;
    }
    vanDriestCoeffs
    {
        delta           cubeRootVol;
        cubeRootVolCoeffs
        {
            deltaCoeff      1;
        }
        smoothCoeffs
        {
            delta           cubeRootVol;
            cubeRootVolCoeffs
            {
                deltaCoeff      1;
            }
            maxDeltaRatio   1.1;
        }
        Aplus           26;
        Cdelta          0.158;
    }
    smoothCoeffs
    {
        delta           cubeRootVol;
        cubeRootVolCoeffs
        {
            deltaCoeff      1;
        }
        maxDeltaRatio   1.1;
    }
    Ce              1.048;
    Ck              0.094;
}

Creating field dpdt

Creating field kinetic energy K

No MRF models present

No finite volume options present
APIO_procNo = 0
APIO_masterNo = 0
writeThread 0 on CPU 48
APIO_procNo = 4
writeThread 4 on CPU 52
APIO_procNo = 16
APIO_procNo = 18
APIO_procNo = 19
APIO_procNo = 24
writeThread 16 on CPU 64
writeThread 18 on CPU 66
writeThread 19 on CPU 67
writeThread 24 on CPU 72
APIO_procNo = 17
writeThread 17 on CPU 65
APIO_procNo = 28
writeThread 28 on CPU 76
APIO_procNo = 5
APIO_procNo = 64
writeThread 5 on CPU 53
APIO_procNo = 66
writeThread 64 on CPU 64
APIO_procNo = 67
writeThread 67 on CPU 67
writeThread 66 on CPU 66
APIO_procNo = 29
writeThread 29 on CPU 77
APIO_procNo = 6
writeThread 6 on CPU 54
APIO_procNo = 30
writeThread 30 on CPU 78
APIO_procNo = 20
APIO_procNo = 21
writeThread 20 on CPU 68
writeThread 21 on CPU 69
APIO_procNo = 22
APIO_procNo = 1
APIO_procNo = 2
APIO_procNo = 3
writeThread 22 on CPU 70
APIO_procNo = 31
APIO_procNo = 23
APIO_procNo = 32
APIO_procNo = 34
APIO_procNo = 35
APIO_procNo = 36
APIO_procNo = 38
writeThread APIO_procNo = 39
writeThread 1 on CPU writeThread 2 on CPU writeThread 3 on CPU APIO_procNo = 33
38 on CPU writeThread 36 on CPU APIO_procNo = 7
writeThread 31 on CPU writeThread 32 on CPU 80
writeThread 34 on CPU 82
writeThread 35 on CPU 83
84
writeThread 39 on CPU 87
50
writeThread 7 on CPU 55
APIO_procNo = 25
APIO_procNo = 27
79
writeThread 33 on CPU 81
writeThread 25 on CPU 73
APIO_procNo = 37
writeThread 27 on CPU 75
writeThread 37 on CPU 86
85
writeThread 23 on CPU 71
APIO_procNo = 40
writeThread 40 on CPU 88
APIO_procNo = 42
writeThread 42 on CPU 90
APIO_procNo = 43
writeThread 43 on CPU 91
APIO_procNo = 41
writeThread 41 on CPU 89
APIO_procNo = 44
APIO_procNo = 45
writeThread 44 on CPU writeThread 45 on CPU 92
93
APIO_procNo = 46
APIO_procNo = 47
writeThread 46 on CPU 94
writeThread 47 on CPU 95
49
51
APIO_procNo = 8
writeThread 8 on CPU 56
APIO_procNo = 9
writeThread 9 on CPU 57
APIO_procNo = 10
writeThread 10 on CPU 58
APIO_procNo = 11
writeThread 11 on CPU 59
APIO_procNo = 12
writeThread 12 on CPU 60
APIO_procNo = 13
writeThread 13 on CPU 61
APIO_procNo = 14
writeThread 14 on CPU 62
APIO_procNo = 15
writeThread 15 on CPU 63
APIO_procNo = 26
writeThread 26 on CPU 74
APIO_procNo = 80
APIO_procNo = 81
APIO_procNo = 84
APIO_procNo = 85
APIO_procNo = 86
writeThread 80 on CPU 80APIO_procNo = 82

APIO_procNo = 83
writeThread 84 on CPU 84
APIO_procNo = 88
APIO_procNo = 90
APIO_procNo = 91
writeThread 86 on CPU 86
writeThread 82 on CPU 82
writeThread 83 on CPU 83
writeThread 90 on CPU 90
writeThread 91 on CPU 91
writeThread 81 on CPU 81
writeThread 85 on CPU 85
writeThread 88 on CPU 88
APIO_procNo = 48
APIO_procNo = 49
APIO_procNo = 52
APIO_procNo = 54
writeThread 52 on CPU 52
writeThread 54 on CPU 54
APIO_procNo = 53
APIO_procNo = 55
writeThread 53 on CPU 53
writeThread 55 on CPU 55
writeThread 48 on CPU 48
writeThread 49 on CPU 49
APIO_procNo = 50
APIO_procNo = 51
writeThread 50 on CPU 50
writeThread 51 on CPU 51
APIO_procNo = 72
writeThread 72 on CPU 72
APIO_procNo = 76
APIO_procNo = 78
APIO_procNo = 73
writeThread 76 on CPU 76
APIO_procNo = 79
writeThread 73 on CPU 73
writeThread 78 on CPU 78
writeThread 79 on CPU 79
APIO_procNo = 77
writeThread 77 on CPU 77
APIO_procNo = 74
APIO_procNo = 75
writeThread 74 on CPU 74
writeThread 75 on CPU 75
APIO_procNo = 68
APIO_procNo = 69
APIO_procNo = 70
writeThread 68 on CPU 68
writeThread 70 on CPU 70
APIO_procNo = 71
writeThread 69 on CPU 69
writeThread 71 on CPU 71
APIO_procNo = 89
writeThread 89 on CPU 89
APIO_procNo = 56
writeThread 56 on CPU 56
APIO_procNo = 57
APIO_procNo = 61
APIO_procNo = 62
APIO_procNo = 60
writeThread 57 on CPU 57
writeThread 61 on CPU 61
writeThread 62 on CPU 62
writeThread 60 on CPU 60
APIO_procNo = 58
APIO_procNo = 59
writeThread 58 on CPU 58
writeThread 59 on CPU 59
APIO_procNo = 65
writeThread 65 on CPU 65
APIO_procNo = 63
writeThread 63 on CPU 63
APIO_procNo = 92
writeThread 92 on CPU 92
APIO_procNo = 93
APIO_procNo = 94
writeThread 93 on CPU APIO_procNo = 95
writeThread 94 on CPU 94
writeThread 95 on CPU 95
93
APIO_procNo = 87
writeThread 87 on CPU 87
Courant Number mean: 2.06605644345788e-11 max: 2.085039370078741e-05

Starting time loop

Courant Number mean: 2.06605644345788e-11 max: 2.085039370078741e-05
deltaT = 1.2e-09
Time = 1.2e-09

PIMPLE: iteration 1
diagonal:  Solving for rho, Initial residual = 0, Final residual = 0, No Iterations 0
DILUPBiCG:  Solving for Ux, Initial residual = 1, Final residual = 1.718965666291076e-24, No Iterations 2
DILUPBiCG:  Solving for Uy, Initial residual = 1, Final residual = 1.867279351586608e-20, No Iterations 2
DILUPBiCG:  Solving for Uz, Initial residual = 1, Final residual = 1.867258447067902e-20, No Iterations 2
DILUPBiCG:  Solving for e, Initial residual = 0.9999980106475111, Final residual = 7.510305304331126e-20, No Iterations 2
DILUPBiCG:  Solving for p, Initial residual = 0.9999992417052803, Final residual = 2.465845542097013e-10, No Iterations 1
pEqnloop: 0
diagonal:  Solving for rho, Initial residual = 0, Final residual = 0, No Iterations 0
time step continuity errors : sum local = 2.449941026102298e-16, global = -2.446304428970772e-16, cumulative = -2.446304428970772e-16
DILUPBiCG:  Solving for p, Initial residual = 2.335543175362015e-07, Final residual = 1.398309027984003e-16, No Iterations 1
pEqnloop: 1
diagonal:  Solving for rho, Initial residual = 0, Final residual = 0, No Iterations 0
time step continuity errors : sum local = 2.655961029892281e-16, global = -2.647424174936908e-16, cumulative = -5.09372860390768e-16
DILUPBiCG:  Solving for k, Initial residual = 0.9999999783982569, Final residual = 1.867401495078381e-20, No Iterations 2
ExecutionTime = 15.25 s  ClockTime = 31 s

APIO_IO_STEP = 0.0002100467681884766
Courant Number mean: 2.479280160746547e-11 max: 2.50199092129387e-05
deltaT = 1.44e-09
Time = 2.64e-09

PIMPLE: iteration 1
diagonal:  Solving for rho, Initial residual = 0, Final residual = 0, No Iterations 0
DILUPBiCG:  Solving for Ux, Initial residual = 0.3749195240921545, Final residual = 1.94249752953255e-24, No Iterations 2
DILUPBiCG:  Solving for Uy, Initial residual = 0.3749195240187656, Final residual = 4.236052648078173e-21, No Iterations 2
DILUPBiCG:  Solving for Uz, Initial residual = 0.2307598235440574, Final residual = 2.616551748285908e-21, No Iterations 2
DILUPBiCG:  Solving for e, Initial residual = 0.2307525999028318, Final residual = 1.050408070253224e-20, No Iterations 2
DILUPBiCG:  Solving for p, Initial residual = 0.2307598089196976, Final residual = 3.431150721895443e-11, No Iterations 1
pEqnloop: 0
diagonal:  Solving for rho, Initial residual = 0, Final residual = 0, No Iterations 0
time step continuity errors : sum local = 5.514858844790885e-16, global = -5.514381340822412e-16, cumulative = -1.060810994473009e-15
DILUPBiCG:  Solving for p, Initial residual = 1.569863400846519e-07, Final residual = 9.066767751946936e-15, No Iterations 1
pEqnloop: 1
diagonal:  Solving for rho, Initial residual = 0, Final residual = 0, No Iterations 0
time step continuity errors : sum local = 4.804507032747787e-16, global = -4.804475113250323e-16, cumulative = -1.541258505798041e-15
DILUPBiCG:  Solving for k, Initial residual = 0.7612498622248649, Final residual = 8.646208980495357e-21, No Iterations 2
ExecutionTime = 34.35 s  ClockTime = 69 s

APIO_IO_STEP = 0.0001108646392822266
Courant Number mean: 2.975154167244254e-11 max: 3.002308059560313e-05
deltaT = 1.728e-09
Time = 4.368e-09

PIMPLE: iteration 1
diagonal:  Solving for rho, Initial residual = 0, Final residual = 0, No Iterations 0
DILUPBiCG:  Solving for Ux, Initial residual = 0.3231076444130425, Final residual = 8.250235919527954e-24, No Iterations 2
DILUPBiCG:  Solving for Uy, Initial residual = 0.3231076411872497, Final residual = 5.311885698420707e-21, No Iterations 2
DILUPBiCG:  Solving for Uz, Initial residual = 0.1406142643019042, Final residual = 2.343750415790901e-21, No Iterations 2
DILUPBiCG:  Solving for e, Initial residual = 0.1406074585705762, Final residual = 9.355966204657797e-21, No Iterations 2
DILUPBiCG:  Solving for p, Initial residual = 0.140613582926372, Final residual = 3.011330559502642e-11, No Iterations 1
pEqnloop: 0
diagonal:  Solving for rho, Initial residual = 0, Final residual = 0, No Iterations 0
time step continuity errors : sum local = 6.622712240642723e-16, global = -6.622142609390777e-16, cumulative = -2.203472766737119e-15
DILUPBiCG:  Solving for p, Initial residual = 1.007736431987974e-07, Final residual = 2.689597763413156e-14, No Iterations 1
pEqnloop: 1
diagonal:  Solving for rho, Initial residual = 0, Final residual = 0, No Iterations 0
time step continuity errors : sum local = 6.431830336732666e-16, global = -6.431827994017256e-16, cumulative = -2.846655566138845e-15
DILUPBiCG:  Solving for k, Initial residual = 0.5223924253609917, Final residual = 8.740223522794566e-21, No Iterations 2
ExecutionTime = 50.81 s  ClockTime = 101 s

APIO_IO_STEP = 0.0001330375671386719
Courant Number mean: 3.570211002122268e-11 max: 3.602653054273845e-05
deltaT = 2.0736e-09
Time = 6.4416e-09

PIMPLE: iteration 1
diagonal:  Solving for rho, Initial residual = 0, Final residual = 0, No Iterations 0
DILUPBiCG:  Solving for Ux, Initial residual = 0.2861774144290015, Final residual = 2.645566778721124e-23, No Iterations 2
DILUPBiCG:  Solving for Uy, Initial residual = 0.2861774123145036, Final residual = 6.90336381000063e-21, No Iterations 2
DILUPBiCG:  Solving for Uz, Initial residual = 0.1060778808401016, Final residual = 2.641356105292727e-21, No Iterations 2
DILUPBiCG:  Solving for e, Initial residual = 0.1060696291004173, Final residual = 1.044053493776566e-20, No Iterations 2
DILUPBiCG:  Solving for p, Initial residual = 0.106076573077182, Final residual = 3.272270139444265e-11, No Iterations 1
pEqnloop: 0
diagonal:  Solving for rho, Initial residual = 0, Final residual = 0, No Iterations 0
time step continuity errors : sum local = 3.54890797506649e-16, global = -3.521825716385819e-16, cumulative = -3.198838137777427e-15
DILUPBiCG:  Solving for p, Initial residual = 7.246901762361028e-08, Final residual = 2.026883201495486e-13, No Iterations 1
pEqnloop: 1
diagonal:  Solving for rho, Initial residual = 0, Final residual = 0, No Iterations 0
time step continuity errors : sum local = 3.836176980439948e-16, global = -3.83093257772355e-16, cumulative = -3.581931395549782e-15
DILUPBiCG:  Solving for k, Initial residual = 0.3755561811894175, Final residual = 9.421149134331493e-21, No Iterations 2
ExecutionTime = 65.29000000000001 s  ClockTime = 131 s

APIO_IO_STEP = 1.241964101791382
Courant Number mean: 4.284290893250647e-11 max: 4.323015923841611e-05
deltaT = 2.48832e-09
Time = 8.92992e-09

PIMPLE: iteration 1
diagonal:  Solving for rho, Initial residual = 0, Final residual = 0, No Iterations 0
DILUPBiCG:  Solving for Ux, Initial residual = 0.2580115394322981, Final residual = 7.381231243747039e-23, No Iterations 2
DILUPBiCG:  Solving for Uy, Initial residual = 0.2580115381472587, Final residual = 9.216265119288324e-21, No Iterations 2
DILUPBiCG:  Solving for Uz, Initial residual = 0.08805270476288449, Final residual = 3.330505130379177e-21, No Iterations 2
DILUPBiCG:  Solving for e, Initial residual = 0.08804269851279667, Final residual = 1.298446014309668e-20, No Iterations 2
DILUPBiCG:  Solving for p, Initial residual = 0.08805070046988273, Final residual = 3.912970164491526e-11, No Iterations 1
pEqnloop: 0
diagonal:  Solving for rho, Initial residual = 0, Final residual = 0, No Iterations 0
time step continuity errors : sum local = 1.206325455661483e-16, global = -4.910064135998313e-17, cumulative = -3.631032036909766e-15
DILUPBiCG:  Solving for p, Initial residual = 4.015374455536063e-08, Final residual = 2.419322698326215e-14, No Iterations 1
pEqnloop: 1
diagonal:  Solving for rho, Initial residual = 0, Final residual = 0, No Iterations 0
time step continuity errors : sum local = 1.126247050372235e-16, global = -3.12965020745552e-17, cumulative = -3.662328538984321e-15
DILUPBiCG:  Solving for k, Initial residual = 0.2906875148605242, Final residual = 1.114170490549209e-20, No Iterations 2
ExecutionTime = 79.86 s  ClockTime = 160 s

APIO_IO_STEP = 0.1992213726043701
Courant Number mean: 5.141203809596732e-11 max: 5.187377896431863e-05
deltaT = 2.985983999999999e-09
Time = 1.19159e-08

PIMPLE: iteration 1
diagonal:  Solving for rho, Initial residual = 0, Final residual = 0, No Iterations 0
DILUPBiCG:  Solving for Ux, Initial residual = 0.2369026965945289, Final residual = 1.908459260931424e-22, No Iterations 2
DILUPBiCG:  Solving for Uy, Initial residual = 0.2369026959348848, Final residual = 1.265755070659251e-20, No Iterations 2
DILUPBiCG:  Solving for Uz, Initial residual = 0.07712850025535933, Final residual = 4.508257493173103e-21, No Iterations 2
DILUPBiCG:  Solving for e, Initial residual = 0.07711598642414808, Final residual = 1.727600205617094e-20, No Iterations 2
DILUPBiCG:  Solving for p, Initial residual = 0.07712538329380668, Final residual = 4.938227373171569e-11, No Iterations 1
pEqnloop: 0
diagonal:  Solving for rho, Initial residual = 0, Final residual = 0, No Iterations 0
time step continuity errors : sum local = 3.621111810237365e-16, global = 3.614117340543566e-16, cumulative = -3.300916804929964e-15
DILUPBiCG:  Solving for p, Initial residual = 2.644411849243849e-08, Final residual = 1.634776818643408e-14, No Iterations 1
pEqnloop: 1
diagonal:  Solving for rho, Initial residual = 0, Final residual = 0, No Iterations 0
time step continuity errors : sum local = 3.782923544249006e-16, global = 3.725237691368441e-16, cumulative = -2.92839303579312e-15
DILUPBiCG:  Solving for k, Initial residual = 0.2385156420641159, Final residual = 1.425280297747294e-20, No Iterations 2
ExecutionTime = 94.14 s  ClockTime = 188 s

APIO_IO_STEP = 0.02942514419555664
Courant Number mean: 6.169524221591102e-11 max: 6.224506732903095e-05
deltaT = 3.583180799999999e-09
Time = 1.54991e-08

PIMPLE: iteration 1
diagonal:  Solving for rho, Initial residual = 0, Final residual = 0, No Iterations 0
DILUPBiCG:  Solving for Ux, Initial residual = 0.2210519034472211, Final residual = 4.733341788599226e-22, No Iterations 2
DILUPBiCG:  Solving for Uy, Initial residual = 0.2210519029172896, Final residual = 1.786677294603385e-20, No Iterations 2
DILUPBiCG:  Solving for Uz, Initial residual = 0.06989938345005502, Final residual = 6.427095100299809e-21, No Iterations 2
DILUPBiCG:  Solving for e, Initial residual = 0.0698841945591247, Final residual = 2.41409652837114e-20, No Iterations 2
DILUPBiCG:  Solving for p, Initial residual = 0.06989550805434198, Final residual = 6.448884458361545e-11, No Iterations 1
pEqnloop: 0
diagonal:  Solving for rho, Initial residual = 0, Final residual = 0, No Iterations 0
time step continuity errors : sum local = 3.222076010590608e-16, global = 3.218923887007859e-16, cumulative = -2.606500647092334e-15
DILUPBiCG:  Solving for p, Initial residual = 1.994663938826007e-08, Final residual = 1.306419937293723e-14, No Iterations 1
pEqnloop: 1
diagonal:  Solving for rho, Initial residual = 0, Final residual = 0, No Iterations 0
time step continuity errors : sum local = 3.14293826412698e-16, global = 3.135319109370311e-16, cumulative = -2.292968736155303e-15
DILUPBiCG:  Solving for k, Initial residual = 0.2042781441185913, Final residual = 1.944998317733386e-20, No Iterations 2
ExecutionTime = 108.31 s  ClockTime = 217 s

APIO_IO_STEP = 0.3998456001281738
Courant Number mean: 7.403545226749751e-11 max: 7.468909815230523e-05
deltaT = 4.299816959999999e-09
Time = 1.97989e-08

PIMPLE: iteration 1
diagonal:  Solving for rho, Initial residual = 0, Final residual = 0, No Iterations 0
DILUPBiCG:  Solving for Ux, Initial residual = 0.2090173300889044, Final residual = 1.147929256809149e-21, No Iterations 2
DILUPBiCG:  Solving for Uy, Initial residual = 0.2090173297052895, Final residual = 2.588602849753056e-20, No Iterations 2
DILUPBiCG:  Solving for Uz, Initial residual = 0.06483302971242746, Final residual = 9.551444604310335e-21, No Iterations 2
DILUPBiCG:  Solving for e, Initial residual = 0.06481490062620508, Final residual = 3.509798579698388e-20, No Iterations 2
DILUPBiCG:  Solving for p, Initial residual = 0.06482825108690317, Final residual = 8.620505217175353e-11, No Iterations 1
pEqnloop: 0
diagonal:  Solving for rho, Initial residual = 0, Final residual = 0, No Iterations 0
time step continuity errors : sum local = 1.373130189141037e-16, global = -7.166841127268154e-17, cumulative = -2.364637147427985e-15
DILUPBiCG:  Solving for p, Initial residual = 1.72998217391185e-08, Final residual = 1.212247287832685e-14, No Iterations 1
pEqnloop: 1
diagonal:  Solving for rho, Initial residual = 0, Final residual = 0, No Iterations 0
time step continuity errors : sum local = 1.390381359730321e-16, global = -8.642043748877284e-17, cumulative = -2.451057584916758e-15
DILUPBiCG:  Solving for k, Initial residual = 0.1805908508018854, Final residual = 2.805064593899361e-20, No Iterations 2
ExecutionTime = 120.86 s  ClockTime = 242 s

APIO_IO_STEP = 0.4147124290466309
Courant Number mean: 8.884424112074557e-11 max: 8.961976116517037e-05
deltaT = 5.159780351999998e-09
Time = 2.49587e-08

PIMPLE: iteration 1
diagonal:  Solving for rho, Initial residual = 0, Final residual = 0, No Iterations 0
DILUPBiCG:  Solving for Ux, Initial residual = 0.1997579584786033, Final residual = 2.753920143226692e-21, No Iterations 2
DILUPBiCG:  Solving for Uy, Initial residual = 0.1997579581430221, Final residual = 3.845988406880311e-20, No Iterations 2
DILUPBiCG:  Solving for Uz, Initial residual = 0.06113770784837419, Final residual = 1.470649812087535e-20, No Iterations 2
DILUPBiCG:  Solving for e, Initial residual = 0.06111598532144164, Final residual = 5.282953527495635e-20, No Iterations 2
DILUPBiCG:  Solving for p, Initial residual = 0.06113196400965151, Final residual = 1.171800953699669e-10, No Iterations 1
pEqnloop: 0
diagonal:  Solving for rho, Initial residual = 0, Final residual = 0, No Iterations 0
time step continuity errors : sum local = 2.84685359038097e-16, global = -2.822346444497668e-16, cumulative = -2.733292229366524e-15
DILUPBiCG:  Solving for p, Initial residual = 1.174845958360432e-08, Final residual = 9.124150813058026e-15, No Iterations 1
pEqnloop: 1
diagonal:  Solving for rho, Initial residual = 0, Final residual = 0, No Iterations 0
time step continuity errors : sum local = 2.804134994867432e-16, global = -2.764364238149731e-16, cumulative = -3.009728653181498e-15
DILUPBiCG:  Solving for k, Initial residual = 0.1635154008110037, Final residual = 4.250053727118268e-20, No Iterations 2
ExecutionTime = 136.53 s  ClockTime = 273 s

APIO_IO_STEP = 0.0502779483795166
Courant Number mean: 1.066155798251846e-10 max: 0.0001075334397309669
deltaT = 6.191736422399998e-09
Time = 3.11504e-08

PIMPLE: iteration 1
diagonal:  Solving for rho, Initial residual = 0, Final residual = 0, No Iterations 0
DILUPBiCG:  Solving for Ux, Initial residual = 0.1925419879395943, Final residual = 6.585117481715932e-21, No Iterations 2
DILUPBiCG:  Solving for Uy, Initial residual = 0.1925419876742113, Final residual = 5.857253832232532e-20, No Iterations 2
DILUPBiCG:  Solving for Uz, Initial residual = 0.05836281926546753, Final residual = 2.336494233422288e-20, No Iterations 2
DILUPBiCG:  Solving for e, Initial residual = 0.05833679742540526, Final residual = 8.21166340865504e-20, No Iterations 2
DILUPBiCG:  Solving for p, Initial residual = 0.05835590048699035, Final residual = 1.612821437965925e-10, No Iterations 1
pEqnloop: 0
diagonal:  Solving for rho, Initial residual = 0, Final residual = 0, No Iterations 0
time step continuity errors : sum local = 5.135686747681185e-16, global = -5.087063337992969e-16, cumulative = -3.518434986980795e-15
DILUPBiCG:  Solving for p, Initial residual = 7.727185135558789e-09, Final residual = 7.039907626180887e-15, No Iterations 1
pEqnloop: 1
diagonal:  Solving for rho, Initial residual = 0, Final residual = 0, No Iterations 0
time step continuity errors : sum local = 5.251744576123898e-16, global = -5.229975010336244e-16, cumulative = -4.041432488014419e-15
DILUPBiCG:  Solving for k, Initial residual = 0.1508056956104638, Final residual = 6.739621692845561e-20, No Iterations 2
ExecutionTime = 151.46 s  ClockTime = 302 s

APIO_IO_STEP = 0.2356686592102051
Courant Number mean: 1.279423598870896e-10 max: 0.0001290253889150598
deltaT = 7.430083706879997e-09
Time = 3.85805e-08

PIMPLE: iteration 1
diagonal:  Solving for rho, Initial residual = 0, Final residual = 0, No Iterations 0
DILUPBiCG:  Solving for Ux, Initial residual = 0.1868538002965111, Final residual = 1.577851922226628e-20, No Iterations 2
DILUPBiCG:  Solving for Uy, Initial residual = 0.1868538000939298, Final residual = 9.142742183905057e-20, No Iterations 2
DILUPBiCG:  Solving for Uz, Initial residual = 0.05623286622603371, Final residual = 3.818479964751878e-20, No Iterations 2
DILUPBiCG:  Solving for e, Initial residual = 0.05620169887358535, Final residual = 1.316524480674144e-19, No Iterations 2
DILUPBiCG:  Solving for p, Initial residual = 0.05622459337705351, Final residual = 2.241095569598256e-10, No Iterations 1
pEqnloop: 0
diagonal:  Solving for rho, Initial residual = 0, Final residual = 0, No Iterations 0
time step continuity errors : sum local = 2.514326689776632e-16, global = 2.339723641970355e-16, cumulative = -3.807460123817384e-15
DILUPBiCG:  Solving for p, Initial residual = 9.512792325997584e-09, Final residual = 1.002630775426261e-14, No Iterations 1
pEqnloop: 1
diagonal:  Solving for rho, Initial residual = 0, Final residual = 0, No Iterations 0
time step continuity errors : sum local = 2.060661930433279e-16, global = 1.818882162585059e-16, cumulative = -3.625571907558878e-15
DILUPBiCG:  Solving for k, Initial residual = 0.1411036506608092, Final residual = 1.115732437293092e-19, No Iterations 2
ExecutionTime = 166.03 s  ClockTime = 331 s

APIO_IO_STEP = 0.0001060962677001953
Courant Number mean: 1.535362429302279e-10 max: 0.0001548093385833504
deltaT = 8.916100448255996e-09
Time = 4.74966e-08

PIMPLE: iteration 1
diagonal:  Solving for rho, Initial residual = 0, Final residual = 0, No Iterations 0
DILUPBiCG:  Solving for Ux, Initial residual = 0.1823252013042486, Final residual = 3.804102342811585e-20, No Iterations 2
DILUPBiCG:  Solving for Uy, Initial residual = 0.1823252011179542, Final residual = 1.462512282868109e-19, No Iterations 2
DILUPBiCG:  Solving for Uz, Initial residual = 0.05456982741550908, Final residual = 6.401666640818782e-20, No Iterations 2
DILUPBiCG:  Solving for e, Initial residual = 0.05453249502141727, Final residual = 2.176113537417293e-19, No Iterations 2
DILUPBiCG:  Solving for p, Initial residual = 0.05455990604443802, Final residual = 3.137464473748949e-10, No Iterations 1
pEqnloop: 0
diagonal:  Solving for rho, Initial residual = 0, Final residual = 0, No Iterations 0
time step continuity errors : sum local = 1.420926179426945e-16, global = -7.229672453408901e-17, cumulative = -3.697868632092967e-15
DILUPBiCG:  Solving for p, Initial residual = 8.924470743256277e-09, Final residual = 1.104928322650582e-14, No Iterations 1
pEqnloop: 1
diagonal:  Solving for rho, Initial residual = 0, Final residual = 0, No Iterations 0
time step continuity errors : sum local = 1.533394850657269e-16, global = -1.095961624453378e-16, cumulative = -3.807464794538305e-15
DILUPBiCG:  Solving for k, Initial residual = 0.1335466811475206, Final residual = 1.924503096866241e-19, No Iterations 2
ExecutionTime = 181.23 s  ClockTime = 366 s

APIO_IO_STEP = 4.557901859283447
Courant Number mean: 1.842515163793588e-10 max: 0.000185740947167246
deltaT = 1.069932053790719e-08
Time = 5.81959e-08

PIMPLE: iteration 1
diagonal:  Solving for rho, Initial residual = 0, Final residual = 0, No Iterations 0
DILUPBiCG:  Solving for Ux, Initial residual = 0.1786887492359579, Final residual = 9.26059722712664e-20, No Iterations 2
DILUPBiCG:  Solving for Uy, Initial residual = 0.1786887490987494, Final residual = 2.396252702152546e-19, No Iterations 2
DILUPBiCG:  Solving for Uz, Initial residual = 0.05325349149556059, Final residual = 1.097853114398791e-19, No Iterations 2
DILUPBiCG:  Solving for e, Initial residual = 0.0532087707741745, Final residual = 3.708127638369517e-19, No Iterations 2
DILUPBiCG:  Solving for p, Initial residual = 0.05324158998107939, Final residual = 4.418672167640244e-10, No Iterations 1
pEqnloop: 0
diagonal:  Solving for rho, Initial residual = 0, Final residual = 0, No Iterations 0
time step continuity errors : sum local = 1.476304105488857e-16, global = -8.807413380031826e-17, cumulative = -3.895538928338623e-15
DILUPBiCG:  Solving for p, Initial residual = 5.884968339414251e-09, Final residual = 8.619168764186215e-15, No Iterations 1
pEqnloop: 1
diagonal:  Solving for rho, Initial residual = 0, Final residual = 0, No Iterations 0
time step continuity errors : sum local = 1.498870926589186e-16, global = -1.19768522595382e-16, cumulative = -4.015307450934005e-15
DILUPBiCG:  Solving for k, Initial residual = 0.1275637938322726, Final residual = 3.452433512564107e-19, No Iterations 2
ExecutionTime = 198.22 s  ClockTime = 401 s

APIO_IO_STEP = 0.4808764457702637
Courant Number mean: 2.211137773168204e-10 max: 0.0002228458487620229
deltaT = 1.283918464548863e-08
Time = 7.10351e-08

PIMPLE: iteration 1
diagonal:  Solving for rho, Initial residual = 0, Final residual = 0, No Iterations 0
DILUPBiCG:  Solving for Ux, Initial residual = 0.1757467129848406, Final residual = 2.283919980476834e-19, No Iterations 2
DILUPBiCG:  Solving for Uy, Initial residual = 0.1757467129060387, Final residual = 4.015949395450636e-19, No Iterations 2
DILUPBiCG:  Solving for Uz, Initial residual = 0.05219971917170314, Final residual = 1.919707025853248e-19, No Iterations 2
DILUPBiCG:  Solving for e, Initial residual = 0.05214606690268015, Final residual = 6.513992585550812e-19, No Iterations 2
DILUPBiCG:  Solving for p, Initial residual = 0.05218547202963082, Final residual = 6.253478812676949e-10, No Iterations 1
pEqnloop: 0
diagonal:  Solving for rho, Initial residual = 0, Final residual = 0, No Iterations 0
time step continuity errors : sum local = 4.523445185433282e-16, global = -4.286251986131764e-16, cumulative = -4.443932649547181e-15
DILUPBiCG:  Solving for p, Initial residual = 4.520213146412807e-09, Final residual = 7.878752559962383e-15, No Iterations 1
pEqnloop: 1
diagonal:  Solving for rho, Initial residual = 0, Final residual = 0, No Iterations 0
time step continuity errors : sum local = 4.340542629293563e-16, global = -4.34014079503397e-16, cumulative = -4.877946729050578e-15
DILUPBiCG:  Solving for k, Initial residual = 0.1227635706632935, Final residual = 6.428928934040233e-19, No Iterations 2
ExecutionTime = 214.83 s  ClockTime = 431 s

APIO_IO_STEP = 0.3859055042266846
Courant Number mean: 2.653544440118565e-10 max: 0.0002673531757326268
deltaT = 1.540702157458636e-08
Time = 8.64421e-08

PIMPLE: iteration 1
diagonal:  Solving for rho, Initial residual = 0, Final residual = 0, No Iterations 0
DILUPBiCG:  Solving for Ux, Initial residual = 0.1733503889259664, Final residual = 5.728239856182685e-19, No Iterations 2
DILUPBiCG:  Solving for Uy, Initial residual = 0.1733503889013588, Final residual = 6.866389546294861e-19, No Iterations 2
DILUPBiCG:  Solving for Uz, Initial residual = 0.05134783532360904, Final residual = 3.408937894621192e-19, No Iterations 2
DILUPBiCG:  Solving for e, Initial residual = 0.05128358425265998, Final residual = 1.179516536152869e-18, No Iterations 2
DILUPBiCG:  Solving for p, Initial residual = 0.05133082885152824, Final residual = 8.886157270318762e-10, No Iterations 1
pEqnloop: 0
diagonal:  Solving for rho, Initial residual = 0, Final residual = 0, No Iterations 0
time step continuity errors : sum local = 2.599194302937335e-16, global = 2.448544993350951e-16, cumulative = -4.633092229715483e-15
DILUPBiCG:  Solving for p, Initial residual = 4.875505348282156e-09, Final residual = 1.014408214959846e-14, No Iterations 1
pEqnloop: 1
diagonal:  Solving for rho, Initial residual = 0, Final residual = 0, No Iterations 0
time step continuity errors : sum local = 2.450557356599051e-16, global = 2.366048466763316e-16, cumulative = -4.396487383039152e-15
DILUPBiCG:  Solving for k, Initial residual = 0.11886955425924, Final residual = 1.239938115050707e-18, No Iterations 2
ExecutionTime = 231.81 s  ClockTime = 464 s

APIO_IO_STEP = 0.1831974983215332
Courant Number mean: 3.184523155190987e-10 max: 0.0003207356037221303
deltaT = 1.848842588950363e-08
Time = 1.04931e-07

PIMPLE: iteration 1
diagonal:  Solving for rho, Initial residual = 0, Final residual = 0, No Iterations 0
DILUPBiCG:  Solving for Ux, Initial residual = 0.1713861679070336, Final residual = 1.468601361613587e-18, No Iterations 2
DILUPBiCG:  Solving for Uy, Initial residual = 0.1713861679006927, Final residual = 1.192435621564136e-18, No Iterations 2
DILUPBiCG:  Solving for Uz, Initial residual = 0.05065296332073353, Final residual = 6.115092038748637e-19, No Iterations 2
DILUPBiCG:  Solving for e, Initial residual = 0.05057604428914784, Final residual = 2.200648810703126e-18, No Iterations 2
DILUPBiCG:  Solving for p, Initial residual = 0.05063268386952797, Final residual = 1.267088931886061e-09, No Iterations 1
pEqnloop: 0
diagonal:  Solving for rho, Initial residual = 0, Final residual = 0, No Iterations 0
time step continuity errors : sum local = 3.251230681861936e-16, global = 3.230499759012764e-16, cumulative = -4.073437407137875e-15
DILUPBiCG:  Solving for p, Initial residual = 4.640859461455311e-09, Final residual = 1.161571442840992e-14, No Iterations 1
pEqnloop: 1
diagonal:  Solving for rho, Initial residual = 0, Final residual = 0, No Iterations 0
time step continuity errors : sum local = 2.799299269601028e-16, global = 2.765118641935118e-16, cumulative = -3.796925542944363e-15
DILUPBiCG:  Solving for k, Initial residual = 0.1156814569303286, Final residual = 2.470708825428939e-18, No Iterations 2
ExecutionTime = 245.06 s  ClockTime = 491 s

APIO_IO_STEP = 0.3805282115936279
Courant Number mean: 3.821836782859781e-10 max: 0.0003847571616184504
deltaT = 2.218611106740435e-08
Time = 1.27117e-07

PIMPLE: iteration 1
diagonal:  Solving for rho, Initial residual = 0, Final residual = 0, No Iterations 0
DILUPBiCG:  Solving for Ux, Initial residual = 0.1697659759537364, Final residual = 3.882009338220036e-18, No Iterations 2
DILUPBiCG:  Solving for Uy, Initial residual = 0.1697659759477554, Final residual = 2.08866762604657e-18, No Iterations 2
DILUPBiCG:  Solving for Uz, Initial residual = 0.05008116439209377, Final residual = 1.099990499187399e-18, No Iterations 2
DILUPBiCG:  Solving for e, Initial residual = 0.04998909789892017, Final residual = 4.227268933830358e-18, No Iterations 2
DILUPBiCG:  Solving for p, Initial residual = 0.05005702931322968, Final residual = 1.812218071166892e-09, No Iterations 1
pEqnloop: 0
diagonal:  Solving for rho, Initial residual = 0, Final residual = 0, No Iterations 0
time step continuity errors : sum local = 3.078994535653496e-16, global = -1.678971239025249e-16, cumulative = -3.964822666846888e-15
DILUPBiCG:  Solving for p, Initial residual = 4.717136835466594e-09, Final residual = 1.430887082224839e-14, No Iterations 1
pEqnloop: 1
diagonal:  Solving for rho, Initial residual = 0, Final residual = 0, No Iterations 0
time step continuity errors : sum local = 2.492348671775789e-16, global = -2.325705702987943e-16, cumulative = -4.197393237145682e-15
DILUPBiCG:  Solving for k, Initial residual = 0.1130508733717629, Final residual = 5.072313948345995e-18, No Iterations 2
ExecutionTime = 264.58 s  ClockTime = 524 s

APIO_IO_STEP = 0.000102996826171875
Courant Number mean: 4.58682815251742e-10 max: 0.0004615302830703828
deltaT = 2.662333328088522e-08
Time = 1.5374e-07

PIMPLE: iteration 1
diagonal:  Solving for rho, Initial residual = 0, Final residual = 0, No Iterations 0
DILUPBiCG:  Solving for Ux, Initial residual = 0.168420585664845, Final residual = 1.076591254770088e-17, No Iterations 2
DILUPBiCG:  Solving for Uy, Initial residual = 0.1684205856595176, Final residual = 3.649436141576039e-18, No Iterations 2
DILUPBiCG:  Solving for Uz, Initial residual = 0.04960627258552532, Final residual = 1.962404044467865e-18, No Iterations 2
DILUPBiCG:  Solving for e, Initial residual = 0.04949610166648687, Final residual = 8.351378273072353e-18, No Iterations 2
DILUPBiCG:  Solving for p, Initial residual = 0.04957759032158438, Final residual = 2.598904938035699e-09, No Iterations 1
pEqnloop: 0
diagonal:  Solving for rho, Initial residual = 0, Final residual = 0, No Iterations 0
time step continuity errors : sum local = 6.993878409992627e-16, global = -4.845412541285855e-16, cumulative = -4.681934491274268e-15
DILUPBiCG:  Solving for p, Initial residual = 5.572523284852614e-09, Final residual = 2.057088535018793e-14, No Iterations 1
pEqnloop: 1
diagonal:  Solving for rho, Initial residual = 0, Final residual = 0, No Iterations 0
time step continuity errors : sum local = 5.881026368753091e-16, global = -5.858176635574643e-16, cumulative = -5.267752154831733e-15
DILUPBiCG:  Solving for k, Initial residual = 0.1108656712397283, Final residual = 1.069768861551341e-17, No Iterations 2
ExecutionTime = 279.96 s  ClockTime = 556 s

APIO_IO_STEP = 0.7563881874084473
Courant Number mean: 5.505152374359624e-10 max: 0.000553583859339819
deltaT = 3.194799993706226e-08
Time = 1.85688e-07

PIMPLE: iteration 1
diagonal:  Solving for rho, Initial residual = 0, Final residual = 0, No Iterations 0
DILUPBiCG:  Solving for Ux, Initial residual = 0.1672948815795918, Final residual = 3.278204319421548e-17, No Iterations 2
DILUPBiCG:  Solving for Uy, Initial residual = 0.1672948815737114, Final residual = 6.243583234807421e-18, No Iterations 2
DILUPBiCG:  Solving for Uz, Initial residual = 0.0492077422861327, Final residual = 3.407956452918089e-18, No Iterations 2
DILUPBiCG:  Solving for e, Initial residual = 0.0490759534039116, Final residual = 1.694246384284621e-17, No Iterations 2
DILUPBiCG:  Solving for p, Initial residual = 0.04917370388326752, Final residual = 3.73645856193747e-09, No Iterations 1
pEqnloop: 0
diagonal:  Solving for rho, Initial residual = 0, Final residual = 0, No Iterations 0
time step continuity errors : sum local = 3.122555944568325e-16, global = 1.544910722970375e-16, cumulative = -5.113261082534696e-15
DILUPBiCG:  Solving for p, Initial residual = 5.67460909036505e-09, Final residual = 2.588226337019592e-14, No Iterations 1
pEqnloop: 1
diagonal:  Solving for rho, Initial residual = 0, Final residual = 0, No Iterations 0
time step continuity errors : sum local = 1.15794058446847e-16, global = -5.094909615708337e-17, cumulative = -5.164210178691779e-15
DILUPBiCG:  Solving for k, Initial residual = 0.109039703311851, Final residual = 2.310965431750814e-17, No Iterations 2
ExecutionTime = 294.83 s  ClockTime = 585 s

APIO_IO_STEP = 0.08623909950256348
Courant Number mean: 6.607665761646993e-10 max: 0.0006639444024474684
deltaT = 3.833759992447472e-08
Time = 2.24026e-07

PIMPLE: iteration 1
diagonal:  Solving for rho, Initial residual = 0, Final residual = 0, No Iterations 0
DILUPBiCG:  Solving for Ux, Initial residual = 0.1663444084636112, Final residual = 1.317184479769767e-16, No Iterations 2
DILUPBiCG:  Solving for Uy, Initial residual = 0.1663444084562844, Final residual = 1.00927091824778e-17, No Iterations 2
DILUPBiCG:  Solving for Uz, Initial residual = 0.04886915209457184, Final residual = 5.555539096868711e-18, No Iterations 2
DILUPBiCG:  Solving for e, Initial residual = 0.0487115547631008, Final residual = 3.523122916293556e-17, No Iterations 2
DILUPBiCG:  Solving for p, Initial residual = 0.04882884430953493, Final residual = 5.384842167661407e-09, No Iterations 1
pEqnloop: 0
diagonal:  Solving for rho, Initial residual = 0, Final residual = 0, No Iterations 0
time step continuity errors : sum local = 4.627977000319994e-16, global = 4.320177054824082e-16, cumulative = -4.732192473209371e-15
DILUPBiCG:  Solving for p, Initial residual = 7.062600250796129e-09, Final residual = 3.987921586149178e-14, No Iterations 1
pEqnloop: 1
diagonal:  Solving for rho, Initial residual = 0, Final residual = 0, No Iterations 0
time step continuity errors : sum local = 1.350102837331229e-16, global = 8.59421919116388e-17, cumulative = -4.646250281297732e-15
DILUPBiCG:  Solving for k, Initial residual = 0.1075057488387255, Final residual = 5.098801026124661e-17, No Iterations 2
ExecutionTime = 309.9 s  ClockTime = 616 s

APIO_IO_STEP = 0.4359688758850098
Courant Number mean: 7.931509158380351e-10 max: 0.0007962328698137072
deltaT = 4.600511990936966e-08
Time = 2.70031e-07

PIMPLE: iteration 1
diagonal:  Solving for rho, Initial residual = 0, Final residual = 0, No Iterations 0
DILUPBiCG:  Solving for Ux, Initial residual = 0.1655328421170719, Final residual = 1.064984689042423e-15, No Iterations 2
DILUPBiCG:  Solving for Uy, Initial residual = 0.1655328421107889, Final residual = 1.411965317790677e-17, No Iterations 2
DILUPBiCG:  Solving for Uz, Initial residual = 0.04857713511300332, Final residual = 7.753794192517491e-18, No Iterations 2
DILUPBiCG:  Solving for e, Initial residual = 0.0483887689506978, Final residual = 7.494258231974316e-17, No Iterations 2
DILUPBiCG:  Solving for p, Initial residual = 0.04852954042673924, Final residual = 7.778881391583738e-09, No Iterations 1
pEqnloop: 0
diagonal:  Solving for rho, Initial residual = 0, Final residual = 0, No Iterations 0
time step continuity errors : sum local = 8.310008294740839e-16, global = 2.886902837399255e-16, cumulative = -4.357559997557807e-15
DILUPBiCG:  Solving for p, Initial residual = 9.632217364561949e-09, Final residual = 6.745367673417613e-14, No Iterations 1
pEqnloop: 1
diagonal:  Solving for rho, Initial residual = 0, Final residual = 0, No Iterations 0
time step continuity errors : sum local = 2.70870659301844e-16, global = -2.628447096691733e-16, cumulative = -4.62040470722698e-15
DILUPBiCG:  Solving for k, Initial residual = 0.10621064203239, Final residual = 1.14586710163689e-16, No Iterations 2
ExecutionTime = 321.53 s  ClockTime = 646 s

APIO_IO_STEP = 6.953286647796631
Courant Number mean: 9.521435221385973e-10 max: 0.000954780281918808
deltaT = 5.520614389124359e-08
Time = 3.25237e-07

PIMPLE: iteration 1
diagonal:  Solving for rho, Initial residual = 0, Final residual = 0, No Iterations 0
DILUPBiCG:  Solving for Ux, Initial residual = 0.164830083747998, Final residual = 1.275120309487535e-16, No Iterations 2
DILUPBiCG:  Solving for Uy, Initial residual = 0.1648300837366235, Final residual = 1.164362858631106e-17, No Iterations 2
DILUPBiCG:  Solving for Uz, Initial residual = 0.04832060394619635, Final residual = 6.042984784853813e-18, No Iterations 2
DILUPBiCG:  Solving for e, Initial residual = 0.04809558933765661, Final residual = 1.627188203041533e-16, No Iterations 2
DILUPBiCG:  Solving for p, Initial residual = 0.04826457684294554, Final residual = 1.126451365257665e-08, No Iterations 1
pEqnloop: 0
diagonal:  Solving for rho, Initial residual = 0, Final residual = 0, No Iterations 0
time step continuity errors : sum local = 1.187176673002687e-15, global = 1.152880666915567e-15, cumulative = -3.467524040311413e-15
DILUPBiCG:  Solving for p, Initial residual = 1.358976815524182e-08, Final residual = 1.185618937350603e-13, No Iterations 1
pEqnloop: 1
diagonal:  Solving for rho, Initial residual = 0, Final residual = 0, No Iterations 0
time step continuity errors : sum local = 2.652905537078434e-16, global = 2.076038347692249e-16, cumulative = -3.259920205542188e-15
DILUPBiCG:  Solving for k, Initial residual = 0.1051118191406499, Final residual = 2.616415074574717e-16, No Iterations 2
ExecutionTime = 334.09 s  ClockTime = 672 s

APIO_IO_STEP = 0.9064695835113525
Courant Number mean: 1.143144601502196e-09 max: 0.001144766058994382
deltaT = 6.62473726694923e-08
Time = 3.91484e-07

PIMPLE: iteration 1
diagonal:  Solving for rho, Initial residual = 0, Final residual = 0, No Iterations 0
DILUPBiCG:  Solving for Ux, Initial residual = 0.1642108090149483, Final residual = 2.024871056355153e-16, No Iterations 2
DILUPBiCG:  Solving for Uy, Initial residual = 0.1642108090046536, Final residual = 2.823332658350854e-17, No Iterations 2
DILUPBiCG:  Solving for Uz, Initial residual = 0.04809017019411275, Final residual = 1.546162092701632e-17, No Iterations 2
DILUPBiCG:  Solving for e, Initial residual = 0.04782162226371313, Final residual = 3.598268869426748e-16, No Iterations 2
DILUPBiCG:  Solving for p, Initial residual = 0.04802450486051019, Final residual = 1.635339287258265e-08, No Iterations 1
pEqnloop: 0
diagonal:  Solving for rho, Initial residual = 0, Final residual = 0, No Iterations 0
time step continuity errors : sum local = 1.906804448980659e-15, global = 1.892187187692378e-15, cumulative = -1.36773301784981e-15
DILUPBiCG:  Solving for p, Initial residual = 1.964371050305152e-08, Final residual = 2.144022129898294e-13, No Iterations 1
pEqnloop: 1
diagonal:  Solving for rho, Initial residual = 0, Final residual = 0, No Iterations 0
time step continuity errors : sum local = 2.199931028888724e-16, global = 2.089192630263921e-16, cumulative = -1.158813754823418e-15
DILUPBiCG:  Solving for k, Initial residual = 0.104174825480477, Final residual = 6.056309276515444e-16, No Iterations 2
ExecutionTime = 349.36 s  ClockTime = 702 s

APIO_IO_STEP = 0.01182389259338379
Courant Number mean: 1.372683189730469e-09 max: 0.00137238414113211
deltaT = 7.949684720339076e-08
Time = 4.70981e-07

PIMPLE: iteration 1
diagonal:  Solving for rho, Initial residual = 0, Final residual = 0, No Iterations 0
DILUPBiCG:  Solving for Ux, Initial residual = 0.163653344526723, Final residual = 1.202494689787162e-15, No Iterations 2
DILUPBiCG:  Solving for Uy, Initial residual = 0.163653344516497, Final residual = 2.044340335681803e-16, No Iterations 2
DILUPBiCG:  Solving for Uz, Initial residual = 0.04787770354943559, Final residual = 1.123679039536207e-16, No Iterations 2
DILUPBiCG:  Solving for e, Initial residual = 0.04755752933405941, Final residual = 8.08622712002762e-16, No Iterations 2
DILUPBiCG:  Solving for p, Initial residual = 0.04780112231503229, Final residual = 2.380559925119069e-08, No Iterations 1
pEqnloop: 0
diagonal:  Solving for rho, Initial residual = 0, Final residual = 0, No Iterations 0
time step continuity errors : sum local = 3.141946703396686e-15, global = 3.114076713050888e-15, cumulative = 1.95526295822747e-15
DILUPBiCG:  Solving for p, Initial residual = 2.928308140617325e-08, Final residual = 4.011975659087721e-13, No Iterations 1
pEqnloop: 1
diagonal:  Solving for rho, Initial residual = 0, Final residual = 0, No Iterations 0
time step continuity errors : sum local = 1.464681986520002e-16, global = 1.222827197537252e-16, cumulative = 2.077545677981195e-15
DILUPBiCG:  Solving for k, Initial residual = 0.1033714889497056, Final residual = 1.418318389771744e-15, No Iterations 2
ExecutionTime = 364.63 s  ClockTime = 733 s

APIO_IO_STEP = 0.316948413848877
Courant Number mean: 1.648673951152773e-09 max: 0.001645043660236682
deltaT = 9.53962166440689e-08
Time = 5.66377e-07

PIMPLE: iteration 1
diagonal:  Solving for rho, Initial residual = 0, Final residual = 0, No Iterations 0
DILUPBiCG:  Solving for Ux, Initial residual = 0.1631387975419253, Final residual = 4.4679856349158e-15, No Iterations 2
DILUPBiCG:  Solving for Uy, Initial residual = 0.163138797533534, Final residual = 8.492404765728229e-16, No Iterations 2
DILUPBiCG:  Solving for Uz, Initial residual = 0.04767599177052195, Final residual = 4.672215361550261e-16, No Iterations 2
DILUPBiCG:  Solving for e, Initial residual = 0.04729473452375439, Final residual = 1.842811746417835e-15, No Iterations 2
DILUPBiCG:  Solving for p, Initial residual = 0.04758721635875163, Final residual = 3.47557636518411e-08, No Iterations 1
pEqnloop: 0
diagonal:  Solving for rho, Initial residual = 0, Final residual = 0, No Iterations 0
time step continuity errors : sum local = 5.717985555540267e-15, global = 5.709154643152986e-15, cumulative = 7.786700321134182e-15
DILUPBiCG:  Solving for p, Initial residual = 4.382536306425328e-08, Final residual = 7.586089318424572e-13, No Iterations 1
pEqnloop: 1
diagonal:  Solving for rho, Initial residual = 0, Final residual = 0, No Iterations 0
time step continuity errors : sum local = 5.115166146063789e-16, global = 5.050534319178983e-16, cumulative = 8.291753753052081e-15
DILUPBiCG:  Solving for k, Initial residual = 0.1026785526784368, Final residual = 3.354664309775753e-15, No Iterations 2
ExecutionTime = 378.52 s  ClockTime = 761 s

APIO_IO_STEP = 0.6149501800537109
Courant Number mean: 1.98074528322557e-09 max: 0.001971613580785793
deltaT = 1.144754599728827e-07
Time = 6.80853e-07

PIMPLE: iteration 1
diagonal:  Solving for rho, Initial residual = 0, Final residual = 0, No Iterations 0
DILUPBiCG:  Solving for Ux, Initial residual = 0.1626503756090233, Final residual = 1.482811038592852e-14, No Iterations 2
DILUPBiCG:  Solving for Uy, Initial residual = 0.1626503756022789, Final residual = 3.011543213509468e-15, No Iterations 2
DILUPBiCG:  Solving for Uz, Initial residual = 0.04747847880916612, Final residual = 1.65806949546795e-15, No Iterations 2
DILUPBiCG:  Solving for e, Initial residual = 0.04702517991608115, Final residual = 4.250486025819042e-15, No Iterations 2
DILUPBiCG:  Solving for p, Initial residual = 0.0473763355331141, Final residual = 5.090658663228765e-08, No Iterations 1
pEqnloop: 0
diagonal:  Solving for rho, Initial residual = 0, Final residual = 0, No Iterations 0
time step continuity errors : sum local = 9.321256178441381e-15, global = 8.971615436787856e-15, cumulative = 1.726336918983994e-14
DILUPBiCG:  Solving for p, Initial residual = 6.667528267916848e-08, Final residual = 2.321754920962435e-18, No Iterations 2
pEqnloop: 1
diagonal:  Solving for rho, Initial residual = 0, Final residual = 0, No Iterations 0
time step continuity errors : sum local = 1.818994183963285e-16, global = -1.50594386777604e-16, cumulative = 1.711277480306233e-14
DILUPBiCG:  Solving for k, Initial residual = 0.1020766852050003, Final residual = 8.001708989750739e-15, No Iterations 2
ExecutionTime = 390.4 s  ClockTime = 787 s

APIO_IO_STEP = 2.17927074432373
Courant Number mean: 2.380665807812662e-09 max: 0.002362724964296401
deltaT = 1.373705519674592e-07
Time = 8.18223e-07

PIMPLE: iteration 1
diagonal:  Solving for rho, Initial residual = 0, Final residual = 0, No Iterations 0
DILUPBiCG:  Solving for Ux, Initial residual = 0.1621728660463856, Final residual = 4.699604118155968e-14, No Iterations 2
DILUPBiCG:  Solving for Uy, Initial residual = 0.1621728660411755, Final residual = 9.936844213972656e-15, No Iterations 2
DILUPBiCG:  Solving for Uz, Initial residual = 0.04727908020681896, Final residual = 5.47554572468196e-15, No Iterations 2
DILUPBiCG:  Solving for e, Initial residual = 0.04674109761656044, Final residual = 9.904262290331959e-15, No Iterations 2
DILUPBiCG:  Solving for p, Initial residual = 0.04716262257470766, Final residual = 7.48276892793868e-08, No Iterations 1
pEqnloop: 0
diagonal:  Solving for rho, Initial residual = 0, Final residual = 0, No Iterations 0
time step continuity errors : sum local = 1.636282409741027e-14, global = 1.633457827737083e-14, cumulative = 3.344735308043316e-14
DILUPBiCG:  Solving for p, Initial residual = 1.024260086300028e-07, Final residual = 8.433823753677489e-18, No Iterations 2
pEqnloop: 1
diagonal:  Solving for rho, Initial residual = 0, Final residual = 0, No Iterations 0
time step continuity errors : sum local = 2.708423150966096e-16, global = 2.597221892311689e-16, cumulative = 3.370707526966432e-14
DILUPBiCG:  Solving for k, Initial residual = 0.1015496993658891, Final residual = 1.922283520054683e-14, No Iterations 2
ExecutionTime = 404.23 s  ClockTime = 815 s

APIO_IO_STEP = 0.5573217868804932
Courant Number mean: 2.862909935873928e-09 max: 0.002831151431704678
deltaT = 1.64844662360951e-07
Time = 9.83068e-07

PIMPLE: iteration 1
diagonal:  Solving for rho, Initial residual = 0, Final residual = 0, No Iterations 0
DILUPBiCG:  Solving for Ux, Initial residual = 0.1616922615645539, Final residual = 1.455173139911047e-13, No Iterations 2
DILUPBiCG:  Solving for Uy, Initial residual = 0.1616922615608556, Final residual = 3.15216393124953e-14, No Iterations 2
DILUPBiCG:  Solving for Uz, Initial residual = 0.04707203828904576, Final residual = 1.738740280088253e-14, No Iterations 2
DILUPBiCG:  Solving for e, Initial residual = 0.04643494735402113, Final residual = 2.327573197121091e-14, No Iterations 2
DILUPBiCG:  Solving for p, Initial residual = 0.0469407630487475, Final residual = 1.1041996453244e-07, No Iterations 1
pEqnloop: 0
diagonal:  Solving for rho, Initial residual = 0, Final residual = 0, No Iterations 0
time step continuity errors : sum local = 2.86800496310807e-14, global = 2.8632002051048e-14, cumulative = 6.233907732071232e-14
DILUPBiCG:  Solving for p, Initial residual = 1.582870415198169e-07, Final residual = 3.087043061876036e-17, No Iterations 2
pEqnloop: 1
diagonal:  Solving for rho, Initial residual = 0, Final residual = 0, No Iterations 0
time step continuity errors : sum local = 2.007859565237349e-16, global = 1.930399264668942e-16, cumulative = 6.253211724717922e-14
DILUPBiCG:  Solving for k, Initial residual = 0.1010839782532664, Final residual = 4.646000555370552e-14, No Iterations 2
ExecutionTime = 421.54 s  ClockTime = 850 s

APIO_IO_STEP = 0.0001358985900878906
Courant Number mean: 3.445424697922651e-09 max: 0.003392299833639995
deltaT = 1.978135948331412e-07
Time = 1.18088e-06

PIMPLE: iteration 1
diagonal:  Solving for rho, Initial residual = 0, Final residual = 0, No Iterations 0
DILUPBiCG:  Solving for Ux, Initial residual = 0.1611955281346172, Final residual = 4.445957958380757e-13, No Iterations 2
DILUPBiCG:  Solving for Uy, Initial residual = 0.1611955281324632, Final residual = 9.763516960553788e-14, No Iterations 2
DILUPBiCG:  Solving for Uz, Initial residual = 0.04685187130727345, Final residual = 5.392374110413004e-14, No Iterations 2
DILUPBiCG:  Solving for e, Initial residual = 0.04609939226698839, Final residual = 5.508372951001435e-14, No Iterations 2
DILUPBiCG:  Solving for p, Initial residual = 0.04670597404082777, Final residual = 1.63641015689368e-07, No Iterations 1
pEqnloop: 0
diagonal:  Solving for rho, Initial residual = 0, Final residual = 0, No Iterations 0
time step continuity errors : sum local = 5.099893728361192e-14, global = 4.978938398231683e-14, cumulative = 1.12321501229496e-13
DILUPBiCG:  Solving for p, Initial residual = 2.456501000273319e-07, Final residual = 1.137681380653413e-16, No Iterations 2
pEqnloop: 1
diagonal:  Solving for rho, Initial residual = 0, Final residual = 0, No Iterations 0
time step continuity errors : sum local = 5.771309704463733e-16, global = -5.753893431841145e-16, cumulative = 1.117461118863119e-13
DILUPBiCG:  Solving for k, Initial residual = 0.1006680441138722, Final residual = 1.128669627298663e-13, No Iterations 2
ExecutionTime = 433.89 s  ClockTime = 875 s

APIO_IO_STEP = 0.4314806461334229
Courant Number mean: 4.150694228377883e-09 max: 0.004064862143225875
deltaT = 2.373763137997695e-07
Time = 1.41826e-06

PIMPLE: iteration 1
diagonal:  Solving for rho, Initial residual = 0, Final residual = 0, No Iterations 0
DILUPBiCG:  Solving for Ux, Initial residual = 0.1606705319208203, Final residual = 1.563332775694944e-21, No Iterations 3
DILUPBiCG:  Solving for Uy, Initial residual = 0.1606705319201222, Final residual = 2.97733543376252e-13, No Iterations 2
DILUPBiCG:  Solving for Uz, Initial residual = 0.04661339291610992, Final residual = 1.646890096108269e-13, No Iterations 2
DILUPBiCG:  Solving for e, Initial residual = 0.04572743428227065, Final residual = 1.310968222483949e-13, No Iterations 2
DILUPBiCG:  Solving for p, Initial residual = 0.04645412293923618, Final residual = 2.436436690479071e-07, No Iterations 1
pEqnloop: 0
diagonal:  Solving for rho, Initial residual = 0, Final residual = 0, No Iterations 0
time step continuity errors : sum local = 8.989640650976538e-14, global = 8.950958995083157e-14, cumulative = 2.012557018371435e-13
DILUPBiCG:  Solving for p, Initial residual = 3.828995739563798e-07, Final residual = 4.233256184938398e-16, No Iterations 2
pEqnloop: 1
diagonal:  Solving for rho, Initial residual = 0, Final residual = 0, No Iterations 0
time step continuity errors : sum local = 1.255383893129403e-16, global = -1.041542805024994e-17, cumulative = 2.012452864090932e-13
DILUPBiCG:  Solving for k, Initial residual = 0.1002922723345879, Final residual = 2.753852344022537e-13, No Iterations 2
ExecutionTime = 447.92 s  ClockTime = 905 s

APIO_IO_STEP = 2.703360319137573
Courant Number mean: 5.007252814591383e-09 max: 0.004871711166575167
deltaT = 2.848515765597234e-07
Time = 1.70311e-06

PIMPLE: iteration 1
diagonal:  Solving for rho, Initial residual = 0, Final residual = 0, No Iterations 0
DILUPBiCG:  Solving for Ux, Initial residual = 0.1601061550697855, Final residual = 9.745558987732296e-21, No Iterations 3
DILUPBiCG:  Solving for Uy, Initial residual = 0.1601061550702101, Final residual = 8.980413301958338e-13, No Iterations 2
DILUPBiCG:  Solving for Uz, Initial residual = 0.0463518204651893, Final residual = 4.976511427213047e-13, No Iterations 2
DILUPBiCG:  Solving for e, Initial residual = 0.04531268209930824, Final residual = 3.133929544718663e-13, No Iterations 2
DILUPBiCG:  Solving for p, Initial residual = 0.04618192338014468, Final residual = 3.645678343331765e-07, No Iterations 1
pEqnloop: 0
diagonal:  Solving for rho, Initial residual = 0, Final residual = 0, No Iterations 0
time step continuity errors : sum local = 1.605519265685369e-13, global = 1.599750780063353e-13, cumulative = 3.612203644154286e-13
DILUPBiCG:  Solving for p, Initial residual = 5.983742408286173e-07, Final residual = 1.591732016591251e-15, No Iterations 2
pEqnloop: 1
diagonal:  Solving for rho, Initial residual = 0, Final residual = 0, No Iterations 0
time step continuity errors : sum local = 1.524928582882066e-16, global = 1.221662747273078e-16, cumulative = 3.613425306901558e-13
DILUPBiCG:  Solving for k, Initial residual = 0.09994863968488307, Final residual = 6.743918943234439e-13, No Iterations 2
ExecutionTime = 463.42 s  ClockTime = 936 s

APIO_IO_STEP = 0.03374099731445312
Courant Number mean: 6.051884247549718e-09 max: 0.005841174881477599
deltaT = 3.41821891871668e-07
Time = 2.04493e-06

PIMPLE: iteration 1
diagonal:  Solving for rho, Initial residual = 0, Final residual = 0, No Iterations 0
DILUPBiCG:  Solving for Ux, Initial residual = 0.1594926442373266, Final residual = 7.050726733384236e-20, No Iterations 3
DILUPBiCG:  Solving for Uy, Initial residual = 0.1594926442401409, Final residual = 1.316609461101023e-19, No Iterations 3
DILUPBiCG:  Solving for Uz, Initial residual = 0.0460631021695359, Final residual = 2.347495060355263e-20, No Iterations 3
DILUPBiCG:  Solving for e, Initial residual = 0.04484987091663058, Final residual = 7.517399287096195e-13, No Iterations 2
DILUPBiCG:  Solving for p, Initial residual = 0.04588727558438598, Final residual = 5.483625542544317e-07, No Iterations 1
pEqnloop: 0
diagonal:  Solving for rho, Initial residual = 0, Final residual = 0, No Iterations 0
time step continuity errors : sum local = 2.880740206625877e-13, global = 2.863841294030183e-13, cumulative = 6.477266600931741e-13
DILUPBiCG:  Solving for p, Initial residual = 9.368698910139023e-07, Final residual = 6.068941850910958e-15, No Iterations 2
pEqnloop: 1
diagonal:  Solving for rho, Initial residual = 0, Final residual = 0, No Iterations 0
time step continuity errors : sum local = 1.928673360332223e-16, global = -1.73406781453004e-16, cumulative = 6.475532533117211e-13
DILUPBiCG:  Solving for k, Initial residual = 0.09963055187541484, Final residual = 3.309569308994733e-20, No Iterations 3
ExecutionTime = 476.65 s  ClockTime = 963 s

APIO_IO_STEP = 1.291389942169189
Courant Number mean: 7.33288269780186e-09 max: 0.007008909701035381
deltaT = 4.101862702460016e-07
Time = 2.45512e-06

PIMPLE: iteration 1
diagonal:  Solving for rho, Initial residual = 0, Final residual = 0, No Iterations 0
DILUPBiCG:  Solving for Ux, Initial residual = 0.1588222499448777, Final residual = 5.362383691894175e-19, No Iterations 3
DILUPBiCG:  Solving for Uy, Initial residual = 0.1588222499523368, Final residual = 6.345862998705164e-19, No Iterations 3
DILUPBiCG:  Solving for Uz, Initial residual = 0.0457444279495644, Final residual = 1.568114355093836e-19, No Iterations 3
DILUPBiCG:  Solving for e, Initial residual = 0.04433566620690615, Final residual = 6.960193246255813e-20, No Iterations 3
DILUPBiCG:  Solving for p, Initial residual = 0.04556973148563365, Final residual = 8.292175893078237e-07, No Iterations 1
pEqnloop: 0
diagonal:  Solving for rho, Initial residual = 0, Final residual = 0, No Iterations 0
time step continuity errors : sum local = 5.191611596999097e-13, global = 5.152259910143098e-13, cumulative = 1.162779244326031e-12
DILUPBiCG:  Solving for p, Initial residual = 1.46762040783651e-06, Final residual = 2.356888517988081e-14, No Iterations 2
pEqnloop: 1
diagonal:  Solving for rho, Initial residual = 0, Final residual = 0, No Iterations 0
time step continuity errors : sum local = 1.889136290112451e-16, global = -1.712655104969828e-16, cumulative = 1.162607978815534e-12
DILUPBiCG:  Solving for k, Initial residual = 0.09933265614917507, Final residual = 1.848718035527059e-19, No Iterations 3
ExecutionTime = 493.47 s  ClockTime = 997 s

APIO_IO_STEP = 0.05106067657470703
Courant Number mean: 8.914965511556884e-09 max: 0.008420730798768223
deltaT = 4.922235242952019e-07
Time = 2.94734e-06

PIMPLE: iteration 1
diagonal:  Solving for rho, Initial residual = 0, Final residual = 0, No Iterations 0
DILUPBiCG:  Solving for Ux, Initial residual = 0.1580902152299219, Final residual = 4.088106964542473e-18, No Iterations 3
DILUPBiCG:  Solving for Uy, Initial residual = 0.1580902152461312, Final residual = 3.434769531821204e-18, No Iterations 3
DILUPBiCG:  Solving for Uz, Initial residual = 0.04539499463530771, Final residual = 1.069303005094226e-18, No Iterations 3
DILUPBiCG:  Solving for e, Initial residual = 0.04376989923961604, Final residual = 3.827473101889031e-19, No Iterations 3
DILUPBiCG:  Solving for p, Initial residual = 0.04523114810123854, Final residual = 1.260467250048092e-06, No Iterations 1
pEqnloop: 0
diagonal:  Solving for rho, Initial residual = 0, Final residual = 0, No Iterations 0
time step continuity errors : sum local = 9.39475978815186e-13, global = 9.301296238110232e-13, cumulative = 2.092737602626557e-12
DILUPBiCG:  Solving for p, Initial residual = 2.297926969526697e-06, Final residual = 9.399689028047385e-14, No Iterations 2
pEqnloop: 1
diagonal:  Solving for rho, Initial residual = 0, Final residual = 0, No Iterations 0
time step continuity errors : sum local = 1.31543594857298e-16, global = 1.748863782386047e-17, cumulative = 2.092755091264381e-12
DILUPBiCG:  Solving for k, Initial residual = 0.09905055615283409, Final residual = 1.045999845544677e-18, No Iterations 3
ExecutionTime = 510.15 s  ClockTime = 1031 s

APIO_IO_STEP = 0.6098148822784424
Courant Number mean: 1.088675854584904e-08 max: 0.01013697500769771
deltaT = 5.906682291542422e-07
Time = 3.53801e-06

PIMPLE: iteration 1
diagonal:  Solving for rho, Initial residual = 0, Final residual = 0, No Iterations 0
DILUPBiCG:  Solving for Ux, Initial residual = 0.1572961556148562, Final residual = 3.12630630011229e-17, No Iterations 3
DILUPBiCG:  Solving for Uy, Initial residual = 0.157296155648399, Final residual = 2.076112471740648e-17, No Iterations 3
DILUPBiCG:  Solving for Uz, Initial residual = 0.04501722018883881, Final residual = 7.40468566268992e-18, No Iterations 3
DILUPBiCG:  Solving for e, Initial residual = 0.04315726277647895, Final residual = 2.651454951173843e-18, No Iterations 3
DILUPBiCG:  Solving for p, Initial residual = 0.04488006825705621, Final residual = 1.924617980469722e-06, No Iterations 1
pEqnloop: 0
diagonal:  Solving for rho, Initial residual = 0, Final residual = 0, No Iterations 0
time step continuity errors : sum local = 1.706612375173404e-12, global = 1.682387792596649e-12, cumulative = 3.775142883861031e-12
DILUPBiCG:  Solving for p, Initial residual = 3.592726804109134e-06, Final residual = 3.920961696233423e-13, No Iterations 2
pEqnloop: 1
diagonal:  Solving for rho, Initial residual = 0, Final residual = 0, No Iterations 0
time step continuity errors : sum local = 2.755920458223421e-16, global = 2.647663712038833e-16, cumulative = 3.775407650232235e-12
DILUPBiCG:  Solving for k, Initial residual = 0.09878028334508981, Final residual = 6.109550755603306e-18, No Iterations 3
ExecutionTime = 527.13 s  ClockTime = 1065 s

APIO_IO_STEP = 0.0001235008239746094
Courant Number mean: 1.337218847557196e-08 max: 0.01223925477484595
deltaT = 7.088018749850907e-07
Time = 4.24681e-06

PIMPLE: iteration 1
diagonal:  Solving for rho, Initial residual = 0, Final residual = 0, No Iterations 0
DILUPBiCG:  Solving for Ux, Initial residual = 0.1564459269237859, Final residual = 2.402044560345967e-16, No Iterations 3
DILUPBiCG:  Solving for Uy, Initial residual = 0.1564459269930978, Final residual = 1.369870820720814e-16, No Iterations 3
DILUPBiCG:  Solving for Uz, Initial residual = 0.044618422390318, Final residual = 5.18796147788638e-17, No Iterations 3
DILUPBiCG:  Solving for e, Initial residual = 0.04251036582064629, Final residual = 1.801726529460205e-17, No Iterations 3
DILUPBiCG:  Solving for p, Initial residual = 0.044527960085384, Final residual = 2.948568057080474e-06, No Iterations 1
pEqnloop: 0
diagonal:  Solving for rho, Initial residual = 0, Final residual = 0, No Iterations 0
time step continuity errors : sum local = 3.107254244256681e-12, global = 3.042651375630674e-12, cumulative = 6.818059025862908e-12
DILUPBiCG:  Solving for p, Initial residual = 5.604356023669459e-06, Final residual = 1.359346065169171e-17, No Iterations 3
pEqnloop: 1
diagonal:  Solving for rho, Initial residual = 0, Final residual = 0, No Iterations 0
time step continuity errors : sum local = 2.135390316062266e-16, global = -1.986064724850473e-16, cumulative = 6.817860419390423e-12
DILUPBiCG:  Solving for k, Initial residual = 0.09851729355519247, Final residual = 3.63419501011111e-17, No Iterations 3
ExecutionTime = 542.46 s  ClockTime = 1095 s

APIO_IO_STEP = 0.2326464653015137
Courant Number mean: 1.65477650922623e-08 max: 0.01484090785764148
deltaT = 8.505622499821088e-07
Time = 5.09737e-06

PIMPLE: iteration 1
diagonal:  Solving for rho, Initial residual = 0, Final residual = 0, No Iterations 0
DILUPBiCG:  Solving for Ux, Initial residual = 0.1555535919814264, Final residual = 1.849797015958846e-15, No Iterations 3
DILUPBiCG:  Solving for Uy, Initial residual = 0.1555535921350866, Final residual = 9.557008045006061e-16, No Iterations 3
DILUPBiCG:  Solving for Uz, Initial residual = 0.04421301751160204, Final residual = 3.664870129892645e-16, No Iterations 3
DILUPBiCG:  Solving for e, Initial residual = 0.04185200033309859, Final residual = 1.029062636264173e-16, No Iterations 3
DILUPBiCG:  Solving for p, Initial residual = 0.04418243843942291, Final residual = 4.526892055497234e-06, No Iterations 1
pEqnloop: 0
diagonal:  Solving for rho, Initial residual = 0, Final residual = 0, No Iterations 0
time step continuity errors : sum local = 5.665091678060119e-12, global = 5.494568215723435e-12, cumulative = 1.231242863511386e-11
DILUPBiCG:  Solving for p, Initial residual = 8.715729182012674e-06, Final residual = 8.41113890156651e-17, No Iterations 3
pEqnloop: 1
diagonal:  Solving for rho, Initial residual = 0, Final residual = 0, No Iterations 0
time step continuity errors : sum local = 2.612185995096865e-16, global = 1.773600354873299e-16, cumulative = 1.231260599514935e-11
DILUPBiCG:  Solving for k, Initial residual = 0.09825465207426019, Final residual = 2.192809769228099e-16, No Iterations 3
ExecutionTime = 560.9 s  ClockTime = 1133 s

APIO_IO_STEP = 0.5511116981506348
Courant Number mean: 2.066891513048051e-08 max: 0.01810325950707369
deltaT = 1.02067469997853e-06
Time = 6.11805e-06

PIMPLE: iteration 1
diagonal:  Solving for rho, Initial residual = 0, Final residual = 0, No Iterations 0
DILUPBiCG:  Solving for Ux, Initial residual = 0.1546427276473869, Final residual = 1.420944344518849e-14, No Iterations 3
DILUPBiCG:  Solving for Uy, Initial residual = 0.1546427280665286, Final residual = 6.859737728723671e-15, No Iterations 3
DILUPBiCG:  Solving for Uz, Initial residual = 0.04382509644295621, Final residual = 2.59680128609796e-15, No Iterations 3
DILUPBiCG:  Solving for e, Initial residual = 0.04121594116038273, Final residual = 5.888370761239224e-16, No Iterations 3
DILUPBiCG:  Solving for p, Initial residual = 0.04386317663405966, Final residual = 6.944860203940035e-06, No Iterations 1
pEqnloop: 0
diagonal:  Solving for rho, Initial residual = 0, Final residual = 0, No Iterations 0
time step continuity errors : sum local = 1.031325819264631e-11, global = 9.861091012641695e-12, cumulative = 2.217369700779104e-11
DILUPBiCG:  Solving for p, Initial residual = 1.349713413799378e-05, Final residual = 5.235892324708544e-16, No Iterations 3
pEqnloop: 1
diagonal:  Solving for rho, Initial residual = 0, Final residual = 0, No Iterations 0
time step continuity errors : sum local = 1.81363666227983e-16, global = -5.099694539501543e-17, cumulative = 2.217364601084565e-11
DILUPBiCG:  Solving for k, Initial residual = 0.09797999113514805, Final residual = 1.337091855272476e-15, No Iterations 3
ExecutionTime = 574.77 s  ClockTime = 1160 s

APIO_IO_STEP = 0.06035923957824707
Courant Number mean: 2.610901110299832e-08 max: 0.02226018108199954
deltaT = 1.224809639974236e-06
Time = 7.34286e-06

PIMPLE: iteration 1
diagonal:  Solving for rho, Initial residual = 0, Final residual = 0, No Iterations 0
DILUPBiCG:  Solving for Ux, Initial residual = 0.1537465916735018, Final residual = 1.082636308057951e-13, No Iterations 3
DILUPBiCG:  Solving for Uy, Initial residual = 0.153746593184827, Final residual = 4.970260940022941e-14, No Iterations 3
DILUPBiCG:  Solving for Uz, Initial residual = 0.04349112004364193, Final residual = 1.835408180704613e-14, No Iterations 3
DILUPBiCG:  Solving for e, Initial residual = 0.04065043274358662, Final residual = 3.349040943357503e-15, No Iterations 3
DILUPBiCG:  Solving for p, Initial residual = 0.04359206726485025, Final residual = 1.059868852468765e-05, No Iterations 1
pEqnloop: 0
diagonal:  Solving for rho, Initial residual = 0, Final residual = 0, No Iterations 0
time step continuity errors : sum local = 1.866733687625912e-11, global = 1.747733538655924e-11, cumulative = 3.965098139740489e-11
DILUPBiCG:  Solving for p, Initial residual = 2.07543944109764e-05, Final residual = 3.287209889724952e-15, No Iterations 3
pEqnloop: 1
diagonal:  Solving for rho, Initial residual = 0, Final residual = 0, No Iterations 0
time step continuity errors : sum local = 1.592263766546624e-16, global = -4.557093740235703e-17, cumulative = 3.965093582646748e-11
DILUPBiCG:  Solving for k, Initial residual = 0.09767088090567536, Final residual = 8.188174661550099e-15, No Iterations 3
ExecutionTime = 591.52 s  ClockTime = 1194 s

APIO_IO_STEP = 0.143540620803833
Courant Number mean: 3.341530788692315e-08 max: 0.02765364911637921
deltaT = 1.469771567969084e-06
Time = 8.81263e-06

PIMPLE: iteration 1
diagonal:  Solving for rho, Initial residual = 0, Final residual = 0, No Iterations 0
DILUPBiCG:  Solving for Ux, Initial residual = 0.1529051062043795, Final residual = 8.119861772132176e-13, No Iterations 3
DILUPBiCG:  Solving for Uy, Initial residual = 0.1529051114016187, Final residual = 3.575390722887589e-13, No Iterations 3
DILUPBiCG:  Solving for Uz, Initial residual = 0.04326159018768064, Final residual = 1.281937366099245e-13, No Iterations 3
DILUPBiCG:  Solving for e, Initial residual = 0.04021645335415983, Final residual = 1.822901190163491e-14, No Iterations 3
DILUPBiCG:  Solving for p, Initial residual = 0.04338946641151158, Final residual = 1.597489166900374e-05, No Iterations 1
pEqnloop: 0
diagonal:  Solving for rho, Initial residual = 0, Final residual = 0, No Iterations 0
time step continuity errors : sum local = 3.335939836596528e-11, global = 3.028508561996145e-11, cumulative = 6.993602144642893e-11
DILUPBiCG:  Solving for p, Initial residual = 3.147116961409835e-05, Final residual = 2.086766334645438e-14, No Iterations 3
pEqnloop: 1
diagonal:  Solving for rho, Initial residual = 0, Final residual = 0, No Iterations 0
time step continuity errors : sum local = 1.821718800126862e-16, global = -6.430036367732709e-17, cumulative = 6.993595714606525e-11
DILUPBiCG:  Solving for k, Initial residual = 0.09728878572179873, Final residual = 4.984995610058161e-14, No Iterations 3
ExecutionTime = 606.87 s  ClockTime = 1225 s

APIO_IO_STEP = 0.1453385353088379
Courant Number mean: 4.338542416099859e-08 max: 0.03478176391755525
deltaT = 1.7637258815629e-06
Time = 1.05764e-05

PIMPLE: iteration 1
diagonal:  Solving for rho, Initial residual = 0, Final residual = 0, No Iterations 0
DILUPBiCG:  Solving for Ux, Initial residual = 0.1521560714286334, Final residual = 3.668168791252749e-15, No Iterations 4
DILUPBiCG:  Solving for Uy, Initial residual = 0.1521560837221204, Final residual = 4.095372583495592e-13, No Iterations 4
DILUPBiCG:  Solving for Uz, Initial residual = 0.04319969523726912, Final residual = 8.72788220794913e-13, No Iterations 3
DILUPBiCG:  Solving for e, Initial residual = 0.03997927137995227, Final residual = 8.925690606630595e-14, No Iterations 3
DILUPBiCG:  Solving for p, Initial residual = 0.04326627447106619, Final residual = 2.354749587165381e-05, No Iterations 1
pEqnloop: 0
diagonal:  Solving for rho, Initial residual = 0, Final residual = 0, No Iterations 0
time step continuity errors : sum local = 5.829153461227475e-11, global = 5.05442807832144e-11, cumulative = 1.204802379292797e-10
DILUPBiCG:  Solving for p, Initial residual = 4.633504221172918e-05, Final residual = 1.352722832321787e-13, No Iterations 3
pEqnloop: 1
diagonal:  Solving for rho, Initial residual = 0, Final residual = 0, No Iterations 0
time step continuity errors : sum local = 1.928618603345672e-16, global = -3.194941186625388e-18, cumulative = 1.204802347343385e-10
DILUPBiCG:  Solving for k, Initial residual = 0.09677268755548865, Final residual = 2.972358649469081e-13, No Iterations 3
ExecutionTime = 625.6 s  ClockTime = 1259 s

APIO_IO_STEP = 0.2576680183410645
Courant Number mean: 5.716643134786484e-08 max: 0.0443554905143466
deltaT = 2.11647105787548e-06
Time = 1.26928e-05

PIMPLE: iteration 1
diagonal:  Solving for rho, Initial residual = 0, Final residual = 0, No Iterations 0
DILUPBiCG:  Solving for Ux, Initial residual = 0.1515186556834421, Final residual = 4.174964194890843e-14, No Iterations 4
DILUPBiCG:  Solving for Uy, Initial residual = 0.1515186793196937, Final residual = 5.376775138116882e-15, No Iterations 4
DILUPBiCG:  Solving for Uz, Initial residual = 0.04337439886258511, Final residual = 3.642436965105586e-15, No Iterations 4
DILUPBiCG:  Solving for e, Initial residual = 0.03998862377821175, Final residual = 3.266026240015854e-13, No Iterations 3
DILUPBiCG:  Solving for p, Initial residual = 0.04321212757217315, Final residual = 3.347191068017705e-05, No Iterations 1
pEqnloop: 0
diagonal:  Solving for rho, Initial residual = 0, Final residual = 0, No Iterations 0
time step continuity errors : sum local = 9.821946314628059e-11, global = 7.959832757367675e-11, cumulative = 2.000785623080152e-10
DILUPBiCG:  Solving for p, Initial residual = 6.456066039363567e-05, Final residual = 9.480414085811728e-13, No Iterations 3
pEqnloop: 1
diagonal:  Solving for rho, Initial residual = 0, Final residual = 0, No Iterations 0
time step continuity errors : sum local = 1.664209847423423e-16, global = 2.066203937587423e-17, cumulative = 2.000785829700546e-10
DILUPBiCG:  Solving for k, Initial residual = 0.09603602140625386, Final residual = 1.876321297467759e-16, No Iterations 4
ExecutionTime = 642.95 s  ClockTime = 1293 s

APIO_IO_STEP = 0.1318802833557129
Courant Number mean: 7.637916779276529e-08 max: 0.05734720450357023
deltaT = 2.539765269450577e-06
Time = 1.52326e-05

PIMPLE: iteration 1
diagonal:  Solving for rho, Initial residual = 0, Final residual = 0, No Iterations 0
DILUPBiCG:  Solving for Ux, Initial residual = 0.1509719316355635, Final residual = 4.437403301433241e-13, No Iterations 4
DILUPBiCG:  Solving for Uy, Initial residual = 0.1509719719005573, Final residual = 4.232428515412908e-14, No Iterations 4
DILUPBiCG:  Solving for Uz, Initial residual = 0.04384510818784414, Final residual = 4.346142240092349e-14, No Iterations 4
DILUPBiCG:  Solving for e, Initial residual = 0.04024523423605332, Final residual = 6.85087848198682e-13, No Iterations 3
DILUPBiCG:  Solving for p, Initial residual = 0.04318392668673925, Final residual = 4.546793601137619e-05, No Iterations 1
pEqnloop: 0
diagonal:  Solving for rho, Initial residual = 0, Final residual = 0, No Iterations 0
time step continuity errors : sum local = 1.581380231671673e-10, global = 1.160210407260858e-10, cumulative = 3.160996236961404e-10
DILUPBiCG:  Solving for p, Initial residual = 8.966950970943045e-05, Final residual = 3.506301587197281e-14, No Iterations 4
pEqnloop: 1
diagonal:  Solving for rho, Initial residual = 0, Final residual = 0, No Iterations 0
time step continuity errors : sum local = 1.654700839413421e-16, global = 8.358731106256206e-17, cumulative = 3.160997072834515e-10
DILUPBiCG:  Solving for k, Initial residual = 0.09497343520342384, Final residual = 1.630481178986634e-15, No Iterations 4
ExecutionTime = 657.4 s  ClockTime = 1322 s

APIO_IO_STEP = 0.2148137092590332
Courant Number mean: 1.032881823355457e-07 max: 0.07498893815663747
deltaT = 3.047718323340692e-06
Time = 1.82803e-05

PIMPLE: iteration 1
diagonal:  Solving for rho, Initial residual = 0, Final residual = 0, No Iterations 0
DILUPBiCG:  Solving for Ux, Initial residual = 0.1504435794923225, Final residual = 2.320290890711069e-14, No Iterations 5
DILUPBiCG:  Solving for Uy, Initial residual = 0.150443640383778, Final residual = 4.114322454194704e-13, No Iterations 4
DILUPBiCG:  Solving for Uz, Initial residual = 0.04463900622268131, Final residual = 4.777723631960349e-13, No Iterations 4
DILUPBiCG:  Solving for e, Initial residual = 0.0406622888520905, Final residual = 2.191784130997836e-15, No Iterations 4
DILUPBiCG:  Solving for p, Initial residual = 0.04310615419511472, Final residual = 5.998098521810104e-05, No Iterations 1
pEqnloop: 0
diagonal:  Solving for rho, Initial residual = 0, Final residual = 0, No Iterations 0
time step continuity errors : sum local = 2.47182476179108e-10, global = 1.580148146628776e-10, cumulative = 4.741145219463291e-10
DILUPBiCG:  Solving for p, Initial residual = 0.0001235971435249645, Final residual = 6.105251290497727e-14, No Iterations 4
pEqnloop: 1
diagonal:  Solving for rho, Initial residual = 0, Final residual = 0, No Iterations 0
time step continuity errors : sum local = 1.816333480626011e-16, global = 7.345880401795883e-18, cumulative = 4.741145292922095e-10
[...]
time step continuity errors : sum local = 1.715892601889276e-16, global = -1.177953378591408e-17, cumulative = 1.770897671879949e-09
DILUPBiCG:  Solving for k, Initial residual = 0.03479257606890657, Final residual = 1.889566069475953e-13, No Iterations 5
ExecutionTime = 912.13 s  ClockTime = 1767 s

APIO_IO_STEP = 0.2086296081542969
Courant Number mean: 6.310059898525665e-07 max: 0.2053656977056528
deltaT = 3.87490630794149e-06
Time = 6.12135e-05

PIMPLE: iteration 1
diagonal:  Solving for rho, Initial residual = 0, Final residual = 0, No Iterations 0
DILUPBiCG:  Solving for Ux, Initial residual = 0.06247282089083798, Final residual = 1.60943380851338e-14, No Iterations 6
DILUPBiCG:  Solving for Uy, Initial residual = 0.06247306611808683, Final residual = 9.295129229706669e-13, No Iterations 5
DILUPBiCG:  Solving for Uz, Initial residual = 0.02284874730959755, Final residual = 5.373877755555714e-13, No Iterations 5
DILUPBiCG:  Solving for e, Initial residual = 0.02028171538037342, Final residual = 3.798294007417865e-13, No Iterations 5
DILUPBiCG:  Solving for p, Initial residual = 0.02434605370450335, Final residual = 6.044323071229218e-05, No Iterations 1
pEqnloop: 0
diagonal:  Solving for rho, Initial residual = 0, Final residual = 0, No Iterations 0
time step continuity errors : sum local = 8.267670058904134e-10, global = -9.190581280868123e-11, cumulative = 1.678991859071267e-09
DILUPBiCG:  Solving for p, Initial residual = 0.0002060786447472821, Final residual = 1.963952062631615e-14, No Iterations 5
pEqnloop: 1
diagonal:  Solving for rho, Initial residual = 0, Final residual = 0, No Iterations 0
time step continuity errors : sum local = 1.631820162410034e-16, global = 1.823191157951254e-17, cumulative = 1.678991877303179e-09
DILUPBiCG:  Solving for k, Initial residual = 0.03190479922651151, Final residual = 2.845317347295907e-13, No Iterations 5
ExecutionTime = 932.6799999999999 s  ClockTime = 1808 s

APIO_IO_STEP = 0.3459436893463135
Courant Number mean: 6.758083480711413e-07 max: 0.2046232061765448
deltaT = 3.787357631957229e-06
Time = 6.50009e-05

PIMPLE: iteration 1
diagonal:  Solving for rho, Initial residual = 0, Final residual = 0, No Iterations 0
DILUPBiCG:  Solving for Ux, Initial residual = 0.05771141509318733, Final residual = 1.269176220233065e-14, No Iterations 6
DILUPBiCG:  Solving for Uy, Initial residual = 0.05771112928202115, Final residual = 7.637061707714021e-13, No Iterations 5
DILUPBiCG:  Solving for Uz, Initial residual = 0.02132783736892454, Final residual = 4.7533886497477e-13, No Iterations 5
DILUPBiCG:  Solving for e, Initial residual = 0.01903837407470048, Final residual = 3.512538933013062e-13, No Iterations 5
DILUPBiCG:  Solving for p, Initial residual = 0.02576951451878943, Final residual = 5.658042856001355e-05, No Iterations 1
pEqnloop: 0
diagonal:  Solving for rho, Initial residual = 0, Final residual = 0, No Iterations 0
time step continuity errors : sum local = 8.237456849201887e-10, global = -2.183674257431438e-11, cumulative = 1.657155134728864e-09
DILUPBiCG:  Solving for p, Initial residual = 0.0001933333326700016, Final residual = 1.650462219477281e-14, No Iterations 5
pEqnloop: 1
diagonal:  Solving for rho, Initial residual = 0, Final residual = 0, No Iterations 0
time step continuity errors : sum local = 1.708740570339437e-16, global = 6.362627634290933e-17, cumulative = 1.657155198355141e-09
DILUPBiCG:  Solving for k, Initial residual = 0.0294407873130807, Final residual = 3.56729727000785e-13, No Iterations 5
ExecutionTime = 952.86 s  ClockTime = 1848 s

APIO_IO_STEP = 0.4965510368347168
Courant Number mean: 7.171129079088694e-07 max: 0.2040795379296798
deltaT = 3.711648576215643e-06
Time = 6.87125e-05

PIMPLE: iteration 1
diagonal:  Solving for rho, Initial residual = 0, Final residual = 0, No Iterations 0
DILUPBiCG:  Solving for Ux, Initial residual = 0.05349965342013105, Final residual = 1.324713508413826e-14, No Iterations 6
DILUPBiCG:  Solving for Uy, Initial residual = 0.05349929893079124, Final residual = 6.609851529742162e-13, No Iterations 5
DILUPBiCG:  Solving for Uz, Initial residual = 0.01967841742657861, Final residual = 4.015383881008789e-13, No Iterations 5
DILUPBiCG:  Solving for e, Initial residual = 0.01905483246441252, Final residual = 2.928479320838481e-13, No Iterations 5
DILUPBiCG:  Solving for p, Initial residual = 0.02548409167659875, Final residual = 5.43132256337659e-05, No Iterations 1
pEqnloop: 0
diagonal:  Solving for rho, Initial residual = 0, Final residual = 0, No Iterations 0
time step continuity errors : sum local = 8.377931715588135e-10, global = -3.988653030209663e-11, cumulative = 1.617268668053044e-09
DILUPBiCG:  Solving for p, Initial residual = 0.0005845451781942483, Final residual = 1.174507558357662e-14, No Iterations 5
pEqnloop: 1
diagonal:  Solving for rho, Initial residual = 0, Final residual = 0, No Iterations 0
time step continuity errors : sum local = 1.658136899835007e-16, global = 4.804512768269397e-17, cumulative = 1.617268716098172e-09
DILUPBiCG:  Solving for k, Initial residual = 0.02732588545957169, Final residual = 3.597034684537534e-13, No Iterations 5
ExecutionTime = 972.51 s  ClockTime = 1888 s

APIO_IO_STEP = 0.278012752532959
Courant Number mean: 7.591323288241305e-07 max: 0.2036223364485429
deltaT = 3.645620260480204e-06
Time = 7.23582e-05

PIMPLE: iteration 1
diagonal:  Solving for rho, Initial residual = 0, Final residual = 0, No Iterations 0
DILUPBiCG:  Solving for Ux, Initial residual = 0.04992110970811002, Final residual = 1.246795830111625e-14, No Iterations 6
DILUPBiCG:  Solving for Uy, Initial residual = 0.04992052522129235, Final residual = 5.734829773465627e-13, No Iterations 5
DILUPBiCG:  Solving for Uz, Initial residual = 0.01819039958392091, Final residual = 3.235673872405366e-13, No Iterations 5
DILUPBiCG:  Solving for e, Initial residual = 0.01852282554384839, Final residual = 2.193070093767083e-13, No Iterations 5
DILUPBiCG:  Solving for p, Initial residual = 0.02388463903537374, Final residual = 5.38606512824051e-05, No Iterations 1
pEqnloop: 0
diagonal:  Solving for rho, Initial residual = 0, Final residual = 0, No Iterations 0
time step continuity errors : sum local = 8.767831220338705e-10, global = -1.236850235486721e-10, cumulative = 1.4935836925495e-09
DILUPBiCG:  Solving for p, Initial residual = 0.0003877239243003946, Final residual = 1.063497070082516e-14, No Iterations 5
pEqnloop: 1
diagonal:  Solving for rho, Initial residual = 0, Final residual = 0, No Iterations 0
time step continuity errors : sum local = 1.716410322289373e-16, global = 2.289525626379997e-17, cumulative = 1.493583715444756e-09
DILUPBiCG:  Solving for k, Initial residual = 0.02548606993247884, Final residual = 2.930669417117379e-13, No Iterations 5
ExecutionTime = 991.59 s  ClockTime = 1925 s

APIO_IO_STEP = 0.3277847766876221
Courant Number mean: 8.051404280343834e-07 max: 0.2031753111213837
deltaT = 3.588644939544029e-06
Time = 7.59468e-05

PIMPLE: iteration 1
diagonal:  Solving for rho, Initial residual = 0, Final residual = 0, No Iterations 0
DILUPBiCG:  Solving for Ux, Initial residual = 0.04692893146252345, Final residual = 7.742999886543883e-13, No Iterations 5
DILUPBiCG:  Solving for Uy, Initial residual = 0.04692852359084283, Final residual = 5.044830876753847e-13, No Iterations 5
DILUPBiCG:  Solving for Uz, Initial residual = 0.01709536803267116, Final residual = 2.674053953866423e-13, No Iterations 5
DILUPBiCG:  Solving for e, Initial residual = 0.01747034359134373, Final residual = 1.645547411132918e-13, No Iterations 5
DILUPBiCG:  Solving for p, Initial residual = 0.02224196681569813, Final residual = 4.630892186626833e-05, No Iterations 1
pEqnloop: 0
diagonal:  Solving for rho, Initial residual = 0, Final residual = 0, No Iterations 0
time step continuity errors : sum local = 7.928877657191195e-10, global = -1.11470584709404e-10, cumulative = 1.382113130735352e-09
DILUPBiCG:  Solving for p, Initial residual = 0.0002063307653406781, Final residual = 3.097017104428442e-14, No Iterations 5
pEqnloop: 1
diagonal:  Solving for rho, Initial residual = 0, Final residual = 0, No Iterations 0
time step continuity errors : sum local = 1.797933240353414e-16, global = -8.300143367755905e-18, cumulative = 1.382113122435208e-09
DILUPBiCG:  Solving for k, Initial residual = 0.02387164642579157, Final residual = 6.376948555338097e-13, No Iterations 5
ExecutionTime = 1008.03 s  ClockTime = 1957 s

APIO_IO_STEP = 0.2100844383239746
Courant Number mean: 8.52230466484355e-07 max: 0.1997342075361878
deltaT = 3.593420459931804e-06
Time = 7.95402e-05

PIMPLE: iteration 1
diagonal:  Solving for rho, Initial residual = 0, Final residual = 0, No Iterations 0
DILUPBiCG:  Solving for Ux, Initial residual = 0.04484046059245143, Final residual = 7.200851315917613e-13, No Iterations 5
DILUPBiCG:  Solving for Uy, Initial residual = 0.04484007600994201, Final residual = 5.109037940620022e-13, No Iterations 5
DILUPBiCG:  Solving for Uz, Initial residual = 0.01645784681108687, Final residual = 2.85548659345983e-13, No Iterations 5
DILUPBiCG:  Solving for e, Initial residual = 0.016585783757293, Final residual = 1.483330987374155e-13, No Iterations 5
DILUPBiCG:  Solving for p, Initial residual = 0.02237831220044507, Final residual = 3.907798915142722e-05, No Iterations 1
pEqnloop: 0
diagonal:  Solving for rho, Initial residual = 0, Final residual = 0, No Iterations 0
time step continuity errors : sum local = 7.0183720000443e-10, global = -2.288708348603414e-11, cumulative = 1.359226038949174e-09
DILUPBiCG:  Solving for p, Initial residual = 0.0002312085309858716, Final residual = 1.664399585826532e-14, No Iterations 5
pEqnloop: 1
diagonal:  Solving for rho, Initial residual = 0, Final residual = 0, No Iterations 0
time step continuity errors : sum local = 1.768648522674989e-16, global = 8.696695375591034e-18, cumulative = 1.35922604764587e-09
DILUPBiCG:  Solving for k, Initial residual = 0.02276246363504821, Final residual = 9.297493511392588e-15, No Iterations 6
ExecutionTime = 1031.21 s  ClockTime = 2000 s

APIO_IO_STEP = 0.180004358291626
Courant Number mean: 9.120011303956983e-07 max: 0.1960107932575602
deltaT = 3.666553662899568e-06
Time = 8.32068e-05

PIMPLE: iteration 1
diagonal:  Solving for rho, Initial residual = 0, Final residual = 0, No Iterations 0
DILUPBiCG:  Solving for Ux, Initial residual = 0.04363103829536834, Final residual = 8.143839987235586e-13, No Iterations 5
DILUPBiCG:  Solving for Uy, Initial residual = 0.04363049609796393, Final residual = 5.971991312973799e-13, No Iterations 5
DILUPBiCG:  Solving for Uz, Initial residual = 0.01637405556454355, Final residual = 4.809360140160099e-13, No Iterations 5
DILUPBiCG:  Solving for e, Initial residual = 0.01737463121537329, Final residual = 1.905079245827207e-13, No Iterations 5
DILUPBiCG:  Solving for p, Initial residual = 0.02395825774000307, Final residual = 4.260152161939652e-05, No Iterations 1
pEqnloop: 0
diagonal:  Solving for rho, Initial residual = 0, Final residual = 0, No Iterations 0
time step continuity errors : sum local = 8.012027586897372e-10, global = -1.439166361660517e-11, cumulative = 1.344834384029264e-09
DILUPBiCG:  Solving for p, Initial residual = 0.0002926697076245571, Final residual = 8.198079887117193e-14, No Iterations 5
pEqnloop: 1
diagonal:  Solving for rho, Initial residual = 0, Final residual = 0, No Iterations 0
time step continuity errors : sum local = 1.75822831736709e-16, global = -3.030413962999534e-17, cumulative = 1.344834353725125e-09
DILUPBiCG:  Solving for k, Initial residual = 0.02219983554718839, Final residual = 1.462177028666091e-14, No Iterations 6
ExecutionTime = 1050.51 s  ClockTime = 2038 s

APIO_IO_STEP = 0.3179950714111328
Courant Number mean: 9.921776699654088e-07 max: 0.1955164008397888
deltaT = 3.75063539135422e-06
Time = 8.69574e-05

PIMPLE: iteration 1
diagonal:  Solving for rho, Initial residual = 0, Final residual = 0, No Iterations 0
DILUPBiCG:  Solving for Ux, Initial residual = 0.04250541387550332, Final residual = 9.448175560160432e-13, No Iterations 5
DILUPBiCG:  Solving for Uy, Initial residual = 0.0425049219690707, Final residual = 7.15287197893004e-13, No Iterations 5
DILUPBiCG:  Solving for Uz, Initial residual = 0.01616858647865576, Final residual = 1.936250205743624e-14, No Iterations 6
DILUPBiCG:  Solving for e, Initial residual = 0.01820159634443134, Final residual = 2.543097299449292e-13, No Iterations 5
DILUPBiCG:  Solving for p, Initial residual = 0.02418678395265173, Final residual = 4.734538559885875e-05, No Iterations 1
pEqnloop: 0
diagonal:  Solving for rho, Initial residual = 0, Final residual = 0, No Iterations 0
time step continuity errors : sum local = 9.31450391990099e-10, global = -6.461534664340253e-11, cumulative = 1.280219007081722e-09
DILUPBiCG:  Solving for p, Initial residual = 0.0004818282179174949, Final residual = 4.404863671111987e-14, No Iterations 5
pEqnloop: 1
diagonal:  Solving for rho, Initial residual = 0, Final residual = 0, No Iterations 0
time step continuity errors : sum local = 1.699051356492936e-16, global = 5.605882309209626e-17, cumulative = 1.280219063140546e-09
DILUPBiCG:  Solving for k, Initial residual = 0.02173315936446052, Final residual = 2.483974518027281e-14, No Iterations 6
ExecutionTime = 1074.78 s  ClockTime = 2080 s

APIO_IO_STEP = 0.1108260154724121
Courant Number mean: 1.085670240350553e-06 max: 0.2048581536400588
deltaT = 3.661690125299252e-06
Time = 9.06191e-05

PIMPLE: iteration 1
diagonal:  Solving for rho, Initial residual = 0, Final residual = 0, No Iterations 0
DILUPBiCG:  Solving for Ux, Initial residual = 0.03977761137875854, Final residual = 8.26002194012762e-13, No Iterations 5
DILUPBiCG:  Solving for Uy, Initial residual = 0.03977708812972199, Final residual = 6.523190769015758e-13, No Iterations 5
DILUPBiCG:  Solving for Uz, Initial residual = 0.01524645443829409, Final residual = 1.256308047473891e-14, No Iterations 6
DILUPBiCG:  Solving for e, Initial residual = 0.01742263489027533, Final residual = 2.942039627972908e-13, No Iterations 5
DILUPBiCG:  Solving for p, Initial residual = 0.02243259170528234, Final residual = 4.70881952183026e-05, No Iterations 1
pEqnloop: 0
diagonal:  Solving for rho, Initial residual = 0, Final residual = 0, No Iterations 0
time step continuity errors : sum local = 9.678361232320421e-10, global = -1.714109665991804e-10, cumulative = 1.108808096541365e-09
DILUPBiCG:  Solving for p, Initial residual = 0.0002385224868801513, Final residual = 8.56224064509033e-14, No Iterations 5
pEqnloop: 1
diagonal:  Solving for rho, Initial residual = 0, Final residual = 0, No Iterations 0
time step continuity errors : sum local = 1.686663055563955e-16, global = -2.814918287951977e-17, cumulative = 1.108808068392182e-09
DILUPBiCG:  Solving for k, Initial residual = 0.02039630976995301, Final residual = 6.065391562612601e-13, No Iterations 5
ExecutionTime = 1091.12 s  ClockTime = 2114 s

APIO_IO_STEP = 3.048569440841675
Courant Number mean: 1.132663669378086e-06 max: 0.2070460180540437
deltaT = 3.537078529415088e-06
Time = 9.41562e-05

PIMPLE: iteration 1
diagonal:  Solving for rho, Initial residual = 0, Final residual = 0, No Iterations 0
DILUPBiCG:  Solving for Ux, Initial residual = 0.0370199576958405, Final residual = 6.352966526830488e-13, No Iterations 5
DILUPBiCG:  Solving for Uy, Initial residual = 0.03701942467693037, Final residual = 5.161604044277494e-13, No Iterations 5
DILUPBiCG:  Solving for Uz, Initial residual = 0.01438812263034453, Final residual = 8.731203163818204e-15, No Iterations 6
DILUPBiCG:  Solving for e, Initial residual = 0.01620863130648643, Final residual = 2.620694664038121e-13, No Iterations 5
DILUPBiCG:  Solving for p, Initial residual = 0.02151685325299619, Final residual = 4.313887045804206e-05, No Iterations 1
pEqnloop: 0
diagonal:  Solving for rho, Initial residual = 0, Final residual = 0, No Iterations 0
time step continuity errors : sum local = 9.23849902905348e-10, global = -2.335901421300369e-10, cumulative = 8.752179262621453e-10
DILUPBiCG:  Solving for p, Initial residual = 0.0002877641682078811, Final residual = 1.531263424367941e-13, No Iterations 5
pEqnloop: 1
diagonal:  Solving for rho, Initial residual = 0, Final residual = 0, No Iterations 0
time step continuity errors : sum local = 1.906579168419858e-16, global = 7.098938842037751e-17, cumulative = 8.752179972515338e-10
DILUPBiCG:  Solving for k, Initial residual = 0.01902487655208355, Final residual = 3.468837805304136e-13, No Iterations 5
ExecutionTime = 1106.69 s  ClockTime = 2155 s

APIO_IO_STEP = 9.791811466217041
Courant Number mean: 1.161337930991127e-06 max: 0.2053497217653398
deltaT = 3.444931406780295e-06
Time = 9.76011e-05

PIMPLE: iteration 1
diagonal:  Solving for rho, Initial residual = 0, Final residual = 0, No Iterations 0
DILUPBiCG:  Solving for Ux, Initial residual = 0.0347698935365979, Final residual = 5.292641693295507e-13, No Iterations 5
DILUPBiCG:  Solving for Uy, Initial residual = 0.0347693577879775, Final residual = 4.438069583863142e-13, No Iterations 5
DILUPBiCG:  Solving for Uz, Initial residual = 0.0138088524081559, Final residual = 6.546991233455625e-15, No Iterations 6
DILUPBiCG:  Solving for e, Initial residual = 0.01571371557774697, Final residual = 2.705975287655149e-13, No Iterations 5
DILUPBiCG:  Solving for p, Initial residual = 0.02116327242756344, Final residual = 3.636803153322264e-05, No Iterations 1
pEqnloop: 0
diagonal:  Solving for rho, Initial residual = 0, Final residual = 0, No Iterations 0
time step continuity errors : sum local = 8.093021284065378e-10, global = -1.88935061173167e-10, cumulative = 6.862829360783668e-10
DILUPBiCG:  Solving for p, Initial residual = 0.0002354202638862192, Final residual = 2.283248508750795e-14, No Iterations 5
pEqnloop: 1
diagonal:  Solving for rho, Initial residual = 0, Final residual = 0, No Iterations 0
time step continuity errors : sum local = 2.024910226026449e-16, global = -6.844259031036731e-17, cumulative = 6.862828676357765e-10
DILUPBiCG:  Solving for k, Initial residual = 0.01789109763663204, Final residual = 8.796534616596409e-13, No Iterations 5
ExecutionTime = 1125.26 s  ClockTime = 2197 s

APIO_IO_STEP = 5.690837860107422
Courant Number mean: 1.193433887256523e-06 max: 0.2029486922147861
deltaT = 3.394879138353268e-06
Time = 0.000100996

PIMPLE: iteration 1
diagonal:  Solving for rho, Initial residual = 0, Final residual = 0, No Iterations 0
DILUPBiCG:  Solving for Ux, Initial residual = 0.03304071409081145, Final residual = 4.9287593923149e-13, No Iterations 5
DILUPBiCG:  Solving for Uy, Initial residual = 0.03304003666455396, Final residual = 4.38310879537013e-13, No Iterations 5
DILUPBiCG:  Solving for Uz, Initial residual = 0.01349993181217754, Final residual = 5.511572020118512e-15, No Iterations 6
DILUPBiCG:  Solving for e, Initial residual = 0.0158345332704965, Final residual = 4.601737302102696e-13, No Iterations 5
DILUPBiCG:  Solving for p, Initial residual = 0.02103674970487315, Final residual = 3.3594640904205e-05, No Iterations 1
pEqnloop: 0
diagonal:  Solving for rho, Initial residual = 0, Final residual = 0, No Iterations 0
time step continuity errors : sum local = 7.751683282267051e-10, global = -1.440831909600053e-10, cumulative = 5.421996766757712e-10
DILUPBiCG:  Solving for p, Initial residual = 0.0002425431752255492, Final residual = 1.629496506179866e-14, No Iterations 5
pEqnloop: 1
diagonal:  Solving for rho, Initial residual = 0, Final residual = 0, No Iterations 0
time step continuity errors : sum local = 1.908756030544557e-16, global = -7.006246897215919e-18, cumulative = 5.421996696695243e-10
DILUPBiCG:  Solving for k, Initial residual = 0.01701675376757489, Final residual = 9.429428530533287e-13, No Iterations 5
ExecutionTime = 1142.93 s  ClockTime = 2232 s

APIO_IO_STEP = 0.2062439918518066
Terminating ...
End

APIO_IO_TIME = 74.06933001925547
Finalising parallel run
