/*---------------------------------------------------------------------------*\
| =========                 |                                                 |
| \\      /  F ield         | OpenFOAM: The Open Source CFD Toolbox           |
|  \\    /   O peration     | Version:  v1912                                 |
|   \\  /    A nd           | Website:  www.openfoam.com                      |
|    \\/     M anipulation  |                                                 |
\*---------------------------------------------------------------------------*/
Build  : _f3950763fe-20191219 OPENFOAM=1912
Arch   : "LSB;label=32;scalar=64"
Exec   : rhoPimpleAPIO_METRICS -parallel
Date   : Oct 28 2020
Time   : 15:48:36
Host   : r34c3t5n1
PID    : 172368
I/O    : uncollated
Case   : /lustre/cray/ws9/2/ws/hpcmcast-ashee2/HAWK/apio_256M/4096
nProcs : 4096
Hosts  :
(
    (r34c3t5n1 128)
    (r34c3t5n2 128)
    (r34c3t5n3 128)
    (r34c3t5n4 128)
    (r34c3t6n1 128)
    (r34c3t6n2 128)
    (r34c3t6n3 128)
    (r34c3t6n4 128)
    (r34c3t7n1 128)
    (r34c3t7n2 128)
    (r34c3t7n3 128)
    (r34c3t7n4 128)
    (r34c3t8n1 128)
    (r34c3t8n2 128)
    (r34c3t8n3 128)
    (r34c3t8n4 128)
    (r34c4t1n1 128)
    (r34c4t1n2 128)
    (r34c4t1n4 128)
    (r34c4t2n1 128)
    (r34c4t2n2 128)
    (r34c4t2n3 128)
    (r34c4t2n4 128)
    (r34c4t3n1 128)
    (r34c4t3n2 128)
    (r34c4t3n3 128)
    (r34c4t3n4 128)
    (r34c4t4n1 128)
    (r34c4t4n2 128)
    (r34c4t4n3 128)
    (r34c4t4n4 128)
    (r34c4t5n1 128)
)
Pstream initialized with:
    floatTransfer      : 0
    nProcsSimpleSum    : 0
    commsType          : nonBlocking
    polling iterations : 0
trapFpe: Floating point exception trapping enabled (FOAM_SIGFPE).
fileModificationChecking : Monitoring run-time modified files using timeStampMaster (fileModificationSkew 10)
allowSystemOperations : Allowing user-supplied system call operations

// * * * * * * * * * * * * * * * * * * * * * * * * * * * * * * * * * * * * * //
Create time

Create mesh for time = 0


PIMPLE: Operating solver in PISO mode

Reading thermophysical properties

Selecting thermodynamics package 
{
    type            hePsiThermo;
    mixture         pureMixture;
    transport       const;
    thermo          eConst;
    equationOfState perfectGas;
    specie          specie;
    energy          sensibleInternalEnergy;
}

Reading field U

Reading/calculating face flux field phi

--> FOAM Warning : 
    From function Foam::pressureControl::pressureControl(const volScalarField&, const volScalarField&, const Foam::dictionary&, bool)
    in file cfdTools/general/pressureControl/pressureControl.C at line 123
    Reading "/lustre/cray/ws9/2/ws/hpcmcast-ashee2/HAWK/apio_256M/4096/system/fvSolution.PIMPLE"
    'rhoMax' specified rather than 'pMax' or 'pMaxFactor'
    This is supported for backward-compatibility but 'pMax' or 'pMaxFactor' are more reliable.
--> FOAM Warning : 
    From function Foam::pressureControl::pressureControl(const volScalarField&, const volScalarField&, const Foam::dictionary&, bool)
    in file cfdTools/general/pressureControl/pressureControl.C at line 178
    Reading "/lustre/cray/ws9/2/ws/hpcmcast-ashee2/HAWK/apio_256M/4096/system/fvSolution.PIMPLE"
    'rhoMin' specified rather than 'pMin' or 'pMinFactor'
    This is supported for backward-compatibility but 'pMin' or 'pMinFactor' are more reliable.
pressureControl
    pMax 1726187.557059955
    pMin 4747.015781914877

Creating turbulence model

Selecting turbulence model type LES
Selecting LES turbulence model kEqn
Selecting LES delta type cubeRootVol
LES
{
    LESModel        kEqn;
    turbulence      on;
    printCoeffs     on;
    delta           cubeRootVol;
    cubeRootVolCoeffs
    {
        deltaCoeff      1;
    }
    PrandtlCoeffs
    {
        delta           cubeRootVol;
        cubeRootVolCoeffs
        {
            deltaCoeff      1;
        }
        smoothCoeffs
        {
            delta           cubeRootVol;
            cubeRootVolCoeffs
            {
                deltaCoeff      1;
            }
            maxDeltaRatio   1.1;
        }
        Cdelta          0.158;
    }
    vanDriestCoeffs
    {
        delta           cubeRootVol;
        cubeRootVolCoeffs
        {
            deltaCoeff      1;
        }
        smoothCoeffs
        {
            delta           cubeRootVol;
            cubeRootVolCoeffs
            {
                deltaCoeff      1;
            }
            maxDeltaRatio   1.1;
        }
        Aplus           26;
        Cdelta          0.158;
    }
    smoothCoeffs
    {
        delta           cubeRootVol;
        cubeRootVolCoeffs
        {
            deltaCoeff      1;
        }
        maxDeltaRatio   1.1;
    }
    Ce              1.048;
    Ck              0.094;
}

Creating field dpdt

Creating field kinetic energy K

No MRF models present

APIO_procNo = 20
APIO_procNo = 21
APIO_procNo = 22
APIO_procNo = 23
APIO_procNo = 24
APIO_procNo = 25
APIO_procNo = 26
APIO_procNo = 27
APIO_procNo = 28
APIO_procNo = 29
APIO_procNo = 30
APIO_procNo = 31
APIO_procNo = 32
APIO_procNo = 33
APIO_procNo = 34
APIO_procNo = 35
APIO_procNo = 36
APIO_procNo = 37
APIO_procNo = 38
APIO_procNo = 39
APIO_procNo = 40
APIO_procNo = 41
APIO_procNo = 42
APIO_procNo = 43
APIO_procNo = 44
APIO_procNo = 45
APIO_procNo = 46
APIO_procNo = 47
APIO_procNo = 48
APIO_procNo = 49
APIO_procNo = 50
APIO_procNo = 51
APIO_procNo = 52
APIO_procNo = 53
APIO_procNo = 54
APIO_procNo = 55
APIO_procNo = 56
APIO_procNo = 57
APIO_procNo = 58
writeThread 58 on CPU 186
APIO_procNo = 59
APIO_procNo = 60
APIO_procNo = 61
APIO_procNo = 62
APIO_procNo = 63
APIO_procNo = 64
APIO_procNo = 65
APIO_procNo = 66
APIO_procNo = 67
APIO_procNo = 68
APIO_procNo = 69
APIO_procNo = 70
APIO_procNo = 71
APIO_procNo = 72
APIO_procNo = 73
APIO_procNo = 74
APIO_procNo = 75
APIO_procNo = 76
APIO_procNo = 77
APIO_procNo = 78
APIO_procNo = 79
APIO_procNo = 80
APIO_procNo = 81
APIO_procNo = 82
APIO_procNo = 83
APIO_procNo = 84
APIO_procNo = 85
APIO_procNo = 86
APIO_procNo = 87
APIO_procNo = 88
APIO_procNo = 89
APIO_procNo = 90
APIO_procNo = 91
APIO_procNo = 92
APIO_procNo = 93
APIO_procNo = 94
APIO_procNo = 95
APIO_procNo = 96
APIO_procNo = 97
APIO_procNo = 98
APIO_procNo = 99
APIO_procNo = 100
APIO_procNo = 101
APIO_procNo = 102
APIO_procNo = 103
APIO_procNo = 104
APIO_procNo = 105
APIO_procNo = 106
APIO_procNo = 107
APIO_procNo = 108
APIO_procNo = 109
APIO_procNo = 110
APIO_procNo = 111
APIO_procNo = 112
APIO_procNo = 113
APIO_procNo = 114
APIO_procNo = 115
APIO_procNo = 116
APIO_procNo = 117
APIO_procNo = 118
APIO_procNo = 119
APIO_procNo = 120
APIO_procNo = 121
APIO_procNo = 122
APIO_procNo = 123
APIO_procNo = 124
APIO_procNo = 125
APIO_procNo = 126
APIO_procNo = 127
No finite volume options present
APIO_procNo = 0
APIO_masterNo = 0
writeThread 0 on CPU 128
APIO_procNo = 1
writeThread 1 on CPU 129
APIO_procNo = 2
writeThread 2 on CPU 130
APIO_procNo = 3
writeThread 3 on CPU 131
APIO_procNo = 4
writeThread 4 on CPU 132
APIO_procNo = 5
writeThread 5 on CPU 133
APIO_procNo = 6
writeThread 6 on CPU 134
APIO_procNo = 7
writeThread 7 on CPU 135
APIO_procNo = 8
writeThread 8 on CPU 136
APIO_procNo = 9
writeThread 9 on CPU 137
APIO_procNo = 10
writeThread 10 on CPU 138
APIO_procNo = 11
writeThread 11 on CPU 139
APIO_procNo = 12
APIO_procNo = 13
writeThread 13 on CPU 141
APIO_procNo = 14
APIO_procNo = 15
APIO_procNo = 16
APIO_procNo = 17
APIO_procNo = 18
APIO_procNo = 19
writeThread 12 on CPU 140
writeThread 14 on CPU 142
writeThread 15 on CPU 143
writeThread 16 on CPU 144
writeThread 18 on CPU 146
writeThread 127 on CPU 255
writeThread 20 on CPU 148
writeThread 21 on CPU 149
writeThread 22 on CPU 150
writeThread 23 on CPU 151
writeThread 24 on CPU 152
writeThread 25 on CPU 153
writeThread 26 on CPU 154
writeThread 27 on CPU 155
writeThread 28 on CPU 156
writeThread 29 on CPU 157
writeThread 30 on CPU 158
writeThread 31 on CPU 159
writeThread 32 on CPU 160
writeThread 33 on CPU 161
writeThread 34 on CPU 162
writeThread 35 on CPU 163
writeThread 36 on CPU 164
writeThread 37 on CPU 165
writeThread 38 on CPU 166
writeThread 39 on CPU 167
writeThread 40 on CPU 168
writeThread 41 on CPU 169
writeThread 42 on CPU 170
writeThread 43 on CPU 171
writeThread 44 on CPU 172
writeThread 45 on CPU 173
writeThread 46 on CPU 174
writeThread 47 on CPU 175
writeThread 48 on CPU 176
writeThread 49 on CPU 177
writeThread 50 on CPU 178
writeThread 51 on CPU 179
writeThread 52 on CPU 180
writeThread 53 on CPU 181
writeThread 54 on CPU 182
writeThread 55 on CPU 183
writeThread 56 on CPU 184
writeThread 57 on CPU 185
writeThread 59 on CPU 187
writeThread 60 on CPU 188
writeThread 61 on CPU 189
writeThread 62 on CPU 190
writeThread 63 on CPU 191
writeThread 64 on CPU 192
writeThread 65 on CPU 193
writeThread 66 on CPU 194
writeThread 67 on CPU 195
writeThread 68 on CPU 196
writeThread 69 on CPU 197
writeThread 70 on CPU 198
writeThread 71 on CPU 199
writeThread 72 on CPU 200
writeThread 73 on CPU 201
writeThread 74 on CPU 202
writeThread 75 on CPU 203
writeThread 76 on CPU 204
writeThread 77 on CPU 205
writeThread 78 on CPU 206
writeThread 79 on CPU 207
writeThread 80 on CPU 208
writeThread 81 on CPU 209
writeThread 82 on CPU 210
writeThread 83 on CPU 211
writeThread 84 on CPU 212
writeThread 85 on CPU 213
writeThread 86 on CPU 214
writeThread 87 on CPU 215
writeThread 88 on CPU 216
writeThread 89 on CPU 217
writeThread 90 on CPU 218
writeThread 91 on CPU 219
writeThread 92 on CPU 220
writeThread 93 on CPU 221
writeThread 94 on CPU 222
writeThread 95 on CPU 223
writeThread 96 on CPU 224
writeThread 97 on CPU 225
writeThread 98 on CPU 226
writeThread 99 on CPU 227
writeThread 100 on CPU 228
writeThread 101 on CPU 229
writeThread 102 on CPU 230
writeThread 103 on CPU 231
writeThread 104 on CPU 232
writeThread 105 on CPU 233
writeThread 106 on CPU 234
writeThread 107 on CPU 235
writeThread 108 on CPU 236
writeThread 109 on CPU 237
writeThread 110 on CPU 238
writeThread 111 on CPU 239
writeThread 112 on CPU 240
writeThread 113 on CPU 241
writeThread 114 on CPU 242
writeThread 115 on CPU 243
writeThread 116 on CPU 244
writeThread 117 on CPU 245
writeThread 118 on CPU 246
writeThread 119 on CPU 247
writeThread 120 on CPU 248
writeThread 121 on CPU 249
writeThread 122 on CPU 250
writeThread 123 on CPU 251
writeThread 125 on CPU 253
writeThread 126 on CPU 254
writeThread 19 on CPU 147
APIO_procNo = 384
writeThread 384 on CPU 128
APIO_procNo = 1792
APIO_procNo = 1664
APIO_procNo = 2560
writeThread 2560 on CPU 128
APIO_procNo = 2688
writeThread 2688 on CPU 128
APIO_procNo = 2816
APIO_procNo = 1536
APIO_procNo = 3968
writeThread 3968 on CPU 128
APIO_procNo = 640
APIO_procNo = 256
APIO_procNo = 768
APIO_procNo = 1024
writeThread 1024 on CPU 128
APIO_procNo = 2304
APIO_procNo = 512
APIO_procNo = 896
APIO_procNo = 1793
APIO_procNo = 1152
APIO_procNo = 1665
APIO_procNo = 1280
APIO_procNo = 2561
writeThread 2561 on CPU 129
APIO_procNo = 1408
writeThread 1408 on CPU 128
APIO_procNo = 2176
writeThread 2176 on CPU 128
APIO_procNo = 2432
APIO_procNo = 2817
APIO_procNo = 3328
APIO_procNo = 3712
APIO_procNo = 1920
APIO_procNo = 2944
APIO_procNo = 2048
APIO_procNo = 3072
APIO_procNo = 3200
APIO_procNo = 3840
APIO_procNo = 3584
APIO_procNo = 3969
writeThread 3969 on CPU 129
APIO_procNo = 128
APIO_procNo = 641
APIO_procNo = 385
writeThread 385 on CPU 129
APIO_procNo = 257
APIO_procNo = 769
APIO_procNo = 1025
APIO_procNo = 2305
APIO_procNo = 513
APIO_procNo = 897
APIO_procNo = 1794
APIO_procNo = 1153
APIO_procNo = 1666
APIO_procNo = 1281
APIO_procNo = 2562
writeThread 2562 on CPU 130
APIO_procNo = 1409
writeThread 1409 on CPU 129
APIO_procNo = 2689
writeThread 2689 on CPU 129
APIO_procNo = 2177
writeThread 2177 on CPU 129
APIO_procNo = 2433
APIO_procNo = 2818
APIO_procNo = 1537
APIO_procNo = 3329
APIO_procNo = 3459
APIO_procNo = 3713
APIO_procNo = 1921
writeThread 1921 on CPU 129
APIO_procNo = 2945
APIO_procNo = 2049
APIO_procNo = 3073
APIO_procNo = 3201
APIO_procNo = 3841
APIO_procNo = 3585
APIO_procNo = 3970
writeThread 3970 on CPU 130
APIO_procNo = 129
APIO_procNo = 642
APIO_procNo = 386
APIO_procNo = 258
APIO_procNo = 770
APIO_procNo = 1026
APIO_procNo = 2306
APIO_procNo = 514
APIO_procNo = 898
APIO_procNo = 1795
APIO_procNo = 1154
APIO_procNo = 1667
APIO_procNo = 1282
APIO_procNo = 2563
writeThread 2563 on CPU 131
APIO_procNo = 1410
writeThread 1410 on CPU 130
APIO_procNo = 2690
writeThread 2690 on CPU 130
APIO_procNo = 2178
writeThread 2178 on CPU 130
APIO_procNo = 2434
APIO_procNo = 2819
APIO_procNo = 1538
APIO_procNo = 3330
APIO_procNo = 3460
APIO_procNo = 3714
APIO_procNo = 1922
writeThread 1922 on CPU 130
APIO_procNo = 2946
APIO_procNo = 2050
APIO_procNo = 3074
APIO_procNo = 3202
APIO_procNo = 3842
APIO_procNo = 3586
APIO_procNo = 3971
writeThread 3971 on CPU 131
APIO_procNo = 130
APIO_procNo = 643
APIO_procNo = 387
APIO_procNo = 259
APIO_procNo = 771
APIO_procNo = 1027
APIO_procNo = 2307
APIO_procNo = 515
APIO_procNo = 899
APIO_procNo = 1796
APIO_procNo = 1155
APIO_procNo = 1668
APIO_procNo = 1283
APIO_procNo = 2564
APIO_procNo = 1411
writeThread 1411 on CPU 131
APIO_procNo = 2691
writeThread 2691 on CPU 131
APIO_procNo = 2179
writeThread 2179 on CPU 131
APIO_procNo = 2435
APIO_procNo = 2820
writeThread 2820 on CPU 132
APIO_procNo = 1539
APIO_procNo = 3331
APIO_procNo = 3461
APIO_procNo = 3715
APIO_procNo = 1923
writeThread 1923 on CPU 131
APIO_procNo = 2947
APIO_procNo = 2051
APIO_procNo = 3075
APIO_procNo = 3203
APIO_procNo = 3843
APIO_procNo = 3587
APIO_procNo = 3972
writeThread 3972 on CPU 132
APIO_procNo = 131
APIO_procNo = 644
APIO_procNo = 388
APIO_procNo = 260
APIO_procNo = 772
APIO_procNo = 1028
writeThread 1028 on CPU 132
APIO_procNo = 2308
APIO_procNo = 516
APIO_procNo = 900
APIO_procNo = 1797
APIO_procNo = 1156
APIO_procNo = 1669
APIO_procNo = 1284
APIO_procNo = 2565
APIO_procNo = 1412
writeThread 1412 on CPU 132
APIO_procNo = 2692
writeThread 2692 on CPU 132
APIO_procNo = 2180
APIO_procNo = 2436
APIO_procNo = 2821
writeThread 2821 on CPU 133
APIO_procNo = 1540
APIO_procNo = 3332
APIO_procNo = 3462
APIO_procNo = 3716
APIO_procNo = 1924
writeThread 1924 on CPU 132
APIO_procNo = 2948
APIO_procNo = 2052
APIO_procNo = 3076
APIO_procNo = 3204
APIO_procNo = 3844
APIO_procNo = 3588
APIO_procNo = 3973
writeThread 3973 on CPU 133
APIO_procNo = 132
APIO_procNo = 645
APIO_procNo = 389
APIO_procNo = 261
APIO_procNo = 773
APIO_procNo = 1029
writeThread 1029 on CPU 133
APIO_procNo = 2309
APIO_procNo = 517
APIO_procNo = 901
APIO_procNo = 1798
APIO_procNo = 1157
APIO_procNo = 1670
APIO_procNo = 1285
APIO_procNo = 2566
writeThread 2566 on CPU 134
APIO_procNo = 1413
writeThread 1413 on CPU 133
APIO_procNo = 2693
writeThread 2693 on CPU 133
APIO_procNo = 2181
APIO_procNo = 2437
APIO_procNo = 2822
writeThread 2822 on CPU 134
APIO_procNo = 1541
APIO_procNo = 3333
APIO_procNo = 3463
APIO_procNo = 3717
APIO_procNo = 1925
writeThread 1925 on CPU 133
APIO_procNo = 2949
APIO_procNo = 2053
APIO_procNo = 3077
APIO_procNo = 3205
APIO_procNo = 3845
APIO_procNo = 3589
APIO_procNo = 3974
writeThread 3974 on CPU 134
APIO_procNo = 133
APIO_procNo = 646
APIO_procNo = 390
APIO_procNo = 262
APIO_procNo = 774
APIO_procNo = 1030
writeThread 1030 on CPU 134
APIO_procNo = 2310
APIO_procNo = 518
APIO_procNo = 902
APIO_procNo = 1799
APIO_procNo = 1158
APIO_procNo = 1671
writeThread 1671 on CPU 135
APIO_procNo = 1286
APIO_procNo = 2567
APIO_procNo = 1414
writeThread 1414 on CPU 134
APIO_procNo = 2694
writeThread 2694 on CPU 134
APIO_procNo = 2182
APIO_procNo = 2438
APIO_procNo = 2823
writeThread 2823 on CPU 135
APIO_procNo = 1542
APIO_procNo = 3334
APIO_procNo = 3464
APIO_procNo = 3718
APIO_procNo = 1926
writeThread 1926 on CPU 134
APIO_procNo = 2950
APIO_procNo = 2054
APIO_procNo = 3078
APIO_procNo = 3206
APIO_procNo = 3846
APIO_procNo = 3590
APIO_procNo = 3975
writeThread 3975 on CPU 135
APIO_procNo = 134
APIO_procNo = 647
APIO_procNo = 391
APIO_procNo = 263
APIO_procNo = 775
APIO_procNo = 1031
writeThread 1031 on CPU 135
APIO_procNo = 2311
APIO_procNo = 519
APIO_procNo = 903
APIO_procNo = 1800
APIO_procNo = 1159
APIO_procNo = 1672
APIO_procNo = 1287
APIO_procNo = 2568
APIO_procNo = 1415
writeThread 1415 on CPU 135
APIO_procNo = 2695
writeThread 2695 on CPU 135
APIO_procNo = 2183
APIO_procNo = 2439
APIO_procNo = 2824
writeThread 2824 on CPU 136
APIO_procNo = 1543
APIO_procNo = 3335
APIO_procNo = 3465
APIO_procNo = 3719
APIO_procNo = 1927
writeThread 1927 on CPU 135
APIO_procNo = 2951
APIO_procNo = 2055
APIO_procNo = 3079
APIO_procNo = 3207
APIO_procNo = 3847
APIO_procNo = 3591
APIO_procNo = 3976
writeThread 3976 on CPU 136
APIO_procNo = 135
APIO_procNo = 648
APIO_procNo = 392
APIO_procNo = 264
APIO_procNo = 776
APIO_procNo = 1032
writeThread 1032 on CPU 136
APIO_procNo = 2312
APIO_procNo = 520
writeThread 520 on CPU 136
APIO_procNo = 904
APIO_procNo = 1801
APIO_procNo = 1160
APIO_procNo = 1673
APIO_procNo = 1288
APIO_procNo = 2569
writeThread 2569 on CPU 137
APIO_procNo = 1416
writeThread 1416 on CPU 136
APIO_procNo = 2696
writeThread 2696 on CPU 136
APIO_procNo = 2184
writeThread 2184 on CPU 136
APIO_procNo = 2440
APIO_procNo = 2825
writeThread 2825 on CPU 137
APIO_procNo = 1544
APIO_procNo = 3336
APIO_procNo = 3466
APIO_procNo = 3720
APIO_procNo = 1928
APIO_procNo = 2952
APIO_procNo = 2056
APIO_procNo = 3080
APIO_procNo = 3208
APIO_procNo = 3848
APIO_procNo = 3592
APIO_procNo = 3977
writeThread 3977 on CPU 137
APIO_procNo = 136
APIO_procNo = 649
APIO_procNo = 393
APIO_procNo = 265
APIO_procNo = 777
APIO_procNo = 1033
writeThread 1033 on CPU 137
APIO_procNo = 2313
APIO_procNo = 521
APIO_procNo = 905
APIO_procNo = 1802
APIO_procNo = 1161
APIO_procNo = 1674
APIO_procNo = 1289
APIO_procNo = 2570
writeThread 2570 on CPU 138
APIO_procNo = 1417
writeThread 1417 on CPU 137
APIO_procNo = 2697
writeThread 2697 on CPU 137
APIO_procNo = 2185
writeThread 2185 on CPU 137
APIO_procNo = 2441
APIO_procNo = 2826
writeThread 2826 on CPU 138
APIO_procNo = 1545
APIO_procNo = 3337
APIO_procNo = 3467
APIO_procNo = 3721
APIO_procNo = 1929
APIO_procNo = 2953
APIO_procNo = 2057
APIO_procNo = 3081
APIO_procNo = 3209
APIO_procNo = 3849
APIO_procNo = 3593
APIO_procNo = 3978
writeThread 3978 on CPU 138
APIO_procNo = 137
writeThread 17 on CPU 145
writeThread 124 on CPU 252
APIO_procNo = 650
APIO_procNo = 394
APIO_procNo = 266
APIO_procNo = 778
APIO_procNo = 1034
writeThread 1034 on CPU 138
APIO_procNo = 2314
APIO_procNo = 522
APIO_procNo = 906
APIO_procNo = 1803
APIO_procNo = 1162
APIO_procNo = 1675
APIO_procNo = 1290
APIO_procNo = 2571
writeThread 2571 on CPU 139
APIO_procNo = 1418
writeThread 1418 on CPU 138
APIO_procNo = 2698
writeThread 2698 on CPU 138
APIO_procNo = 2186
writeThread 2186 on CPU 138
APIO_procNo = 2442
APIO_procNo = 2827
writeThread 2827 on CPU 139
APIO_procNo = 1546
APIO_procNo = 3338
APIO_procNo = 3468
APIO_procNo = 3722
APIO_procNo = 1930
APIO_procNo = 2954
APIO_procNo = 2058
APIO_procNo = 3082
APIO_procNo = 3210
APIO_procNo = 3850
APIO_procNo = 3594
APIO_procNo = 3979
writeThread 3979 on CPU 139
APIO_procNo = 138
APIO_procNo = 651
APIO_procNo = 395
APIO_procNo = 267
APIO_procNo = 779
APIO_procNo = 1035
writeThread 1035 on CPU 139
APIO_procNo = 2315
APIO_procNo = 523
APIO_procNo = 907
APIO_procNo = 1804
APIO_procNo = 1163
APIO_procNo = 1676
APIO_procNo = 1291
APIO_procNo = 2572
writeThread 2572 on CPU 140
APIO_procNo = 1419
writeThread 1419 on CPU 139
APIO_procNo = 2699
writeThread 2699 on CPU 139
APIO_procNo = 2187
writeThread 2187 on CPU 139
APIO_procNo = 2443
APIO_procNo = 2828
writeThread 2828 on CPU 140
APIO_procNo = 1547
APIO_procNo = 3339
APIO_procNo = 3469
APIO_procNo = 3723
APIO_procNo = 1931
APIO_procNo = 2955
APIO_procNo = 2059
APIO_procNo = 3083
APIO_procNo = 3211
APIO_procNo = 3851
APIO_procNo = 3595
APIO_procNo = 3980
APIO_procNo = 139
APIO_procNo = 652
APIO_procNo = 396
APIO_procNo = 268
APIO_procNo = 780
APIO_procNo = 1036
writeThread 1036 on CPU 140
APIO_procNo = 2316
APIO_procNo = 524
APIO_procNo = 908
APIO_procNo = 1805
APIO_procNo = 1164
APIO_procNo = 1677
APIO_procNo = 1292
APIO_procNo = 2573
writeThread 2573 on CPU 141
APIO_procNo = 1420
writeThread 1420 on CPU 140
APIO_procNo = 2700
writeThread 2700 on CPU 140
APIO_procNo = 2188
writeThread 2188 on CPU 140
APIO_procNo = 2444
APIO_procNo = 2829
writeThread 2829 on CPU 141
APIO_procNo = 1548
APIO_procNo = 3340
APIO_procNo = 3470
APIO_procNo = 3724
APIO_procNo = 1932
writeThread 1932 on CPU 140
APIO_procNo = 2956
APIO_procNo = 2060
APIO_procNo = 3084
APIO_procNo = 3212
APIO_procNo = 3852
APIO_procNo = 3596
APIO_procNo = 3981
APIO_procNo = 140
Courant Number mean: 5.192694825925887e-12 max: 2.085039370078742e-05
APIO_procNo = 653
APIO_procNo = 397
APIO_procNo = 269
APIO_procNo = 781
APIO_procNo = 1037
writeThread 1037 on CPU 141
APIO_procNo = 2317
APIO_procNo = 525
APIO_procNo = 909
APIO_procNo = 1806
APIO_procNo = 1165
APIO_procNo = 1678
APIO_procNo = 1293
APIO_procNo = 2574
writeThread 2574 on CPU 142
APIO_procNo = 1421
writeThread 1421 on CPU 141
APIO_procNo = 2701
writeThread 2701 on CPU 141
APIO_procNo = 2189
writeThread 2189 on CPU 141
APIO_procNo = 2445
APIO_procNo = 2830
writeThread 2830 on CPU 142
APIO_procNo = 1549
APIO_procNo = 3341
APIO_procNo = 3471
APIO_procNo = 3725
APIO_procNo = 1933
writeThread 1933 on CPU 141
APIO_procNo = 2957
APIO_procNo = 2061
APIO_procNo = 3085
APIO_procNo = 3213
APIO_procNo = 3853
APIO_procNo = 3597
APIO_procNo = 3982
APIO_procNo = 141
APIO_procNo = 654
APIO_procNo = 398
APIO_procNo = 270
APIO_procNo = 782
APIO_procNo = 1038
writeThread 1038 on CPU 142
APIO_procNo = 2318
APIO_procNo = 526
APIO_procNo = 910
APIO_procNo = 1807
APIO_procNo = 1166
APIO_procNo = 1679
APIO_procNo = 1294
APIO_procNo = 2575
writeThread 2575 on CPU 143
APIO_procNo = 1422
writeThread 1422 on CPU 142
APIO_procNo = 2702
writeThread 2702 on CPU 142
APIO_procNo = 2190
writeThread 2190 on CPU 142
APIO_procNo = 2446
APIO_procNo = 2831
writeThread 2831 on CPU 143
APIO_procNo = 1550
APIO_procNo = 3342
APIO_procNo = 3472
APIO_procNo = 3726
APIO_procNo = 1934
writeThread 1934 on CPU 142
APIO_procNo = 2958
APIO_procNo = 2062
APIO_procNo = 3086
APIO_procNo = 3214
APIO_procNo = 3854
APIO_procNo = 3598
APIO_procNo = 3983
APIO_procNo = 142
APIO_procNo = 655
APIO_procNo = 399
APIO_procNo = 271
APIO_procNo = 783
APIO_procNo = 1039
writeThread 1039 on CPU 143
APIO_procNo = 2319
APIO_procNo = 527
APIO_procNo = 911
APIO_procNo = 1808
writeThread 1808 on CPU 144
APIO_procNo = 1167
APIO_procNo = 1680
APIO_procNo = 1295
APIO_procNo = 2576
APIO_procNo = 1423
writeThread 1423 on CPU 143
APIO_procNo = 2703
APIO_procNo = 2191
writeThread 2191 on CPU 143
APIO_procNo = 2447
APIO_procNo = 2832
APIO_procNo = 1551
APIO_procNo = 3343
APIO_procNo = 3473
APIO_procNo = 3727
APIO_procNo = 1935
writeThread 1935 on CPU 143
APIO_procNo = 2959
APIO_procNo = 2063
APIO_procNo = 3087
APIO_procNo = 3215
APIO_procNo = 3855
APIO_procNo = 3599
APIO_procNo = 3984
writeThread 3984 on CPU 144
APIO_procNo = 143
APIO_procNo = 656
APIO_procNo = 400
APIO_procNo = 272
writeThread 272 on CPU 144
APIO_procNo = 784
APIO_procNo = 1040
APIO_procNo = 2320
writeThread 2320 on CPU 144
APIO_procNo = 528
APIO_procNo = 912
writeThread 912 on CPU 144
APIO_procNo = 1809
writeThread 1809 on CPU 145
APIO_procNo = 1168
APIO_procNo = 1681
APIO_procNo = 1296
APIO_procNo = 2577
APIO_procNo = 1424
writeThread 1424 on CPU 144
APIO_procNo = 2704
APIO_procNo = 2192
APIO_procNo = 2448
APIO_procNo = 2833
APIO_procNo = 1552
APIO_procNo = 3344
APIO_procNo = 3474
APIO_procNo = 3728
APIO_procNo = 1936
APIO_procNo = 2960
writeThread 2960 on CPU 144
APIO_procNo = 2064
writeThread 2064 on CPU 144
APIO_procNo = 3088
APIO_procNo = 3216
writeThread 3216 on CPU 144
APIO_procNo = 3856
APIO_procNo = 3600
writeThread 3600 on CPU 144
APIO_procNo = 3985
writeThread 3985 on CPU 145
APIO_procNo = 144
writeThread 144 on CPU 144
APIO_procNo = 657
APIO_procNo = 401
APIO_procNo = 273
writeThread 273 on CPU 145
APIO_procNo = 785
APIO_procNo = 1041
APIO_procNo = 2321
writeThread 2321 on CPU 145
APIO_procNo = 529
APIO_procNo = 913
writeThread 913 on CPU 145
APIO_procNo = 1810
writeThread 1810 on CPU 146
APIO_procNo = 1169
APIO_procNo = 1682
writeThread 1682 on CPU 146
APIO_procNo = 1297
APIO_procNo = 2578
APIO_procNo = 1425
writeThread 1425 on CPU 145
APIO_procNo = 2705
APIO_procNo = 2193
APIO_procNo = 2449
APIO_procNo = 2834
APIO_procNo = 1553
APIO_procNo = 3345
APIO_procNo = 3475
APIO_procNo = 3729
APIO_procNo = 1937
writeThread 1937 on CPU 145
APIO_procNo = 2961
writeThread 2961 on CPU 145
APIO_procNo = 2065
writeThread 2065 on CPU 145
APIO_procNo = 3089
writeThread 3089 on CPU 145
APIO_procNo = 3217
writeThread 3217 on CPU 145
APIO_procNo = 3857
APIO_procNo = 3601
writeThread 3601 on CPU 145
APIO_procNo = 3986
writeThread 3986 on CPU 146
APIO_procNo = 145
writeThread 145 on CPU 145
APIO_procNo = 658
APIO_procNo = 402
APIO_procNo = 274
writeThread 274 on CPU 146
APIO_procNo = 786
APIO_procNo = 1042
APIO_procNo = 2322
writeThread 2322 on CPU 146
APIO_procNo = 530
APIO_procNo = 914
writeThread 914 on CPU 146
APIO_procNo = 1811
writeThread 1811 on CPU 147
APIO_procNo = 1170
APIO_procNo = 1683
writeThread 1683 on CPU 147
APIO_procNo = 1298
APIO_procNo = 2579
APIO_procNo = 1426
writeThread 1426 on CPU 146
APIO_procNo = 2706
APIO_procNo = 2194
APIO_procNo = 2450
APIO_procNo = 2835
APIO_procNo = 1554
APIO_procNo = 3346
APIO_procNo = 3476
APIO_procNo = 3730
APIO_procNo = 1938
writeThread 1938 on CPU 146
APIO_procNo = 2962
writeThread 2962 on CPU 146
APIO_procNo = 2066
writeThread 2066 on CPU 146
APIO_procNo = 3090
writeThread 3090 on CPU 146
APIO_procNo = 3218
writeThread 3218 on CPU 146
APIO_procNo = 3858
APIO_procNo = 3602
writeThread 3602 on CPU 146
APIO_procNo = 3987
writeThread 3987 on CPU 147
APIO_procNo = 146
writeThread 146 on CPU 146
APIO_procNo = 659
APIO_procNo = 403
APIO_procNo = 275
writeThread 275 on CPU 147
APIO_procNo = 787
APIO_procNo = 1043
APIO_procNo = 2323
writeThread 2323 on CPU 147
APIO_procNo = 531
APIO_procNo = 915
writeThread 915 on CPU 147
APIO_procNo = 1812
writeThread 1812 on CPU 148
APIO_procNo = 1171
APIO_procNo = 1684
writeThread 1684 on CPU 148
APIO_procNo = 1299
APIO_procNo = 2580
APIO_procNo = 1427
writeThread 1427 on CPU 147
APIO_procNo = 2707
APIO_procNo = 2195
APIO_procNo = 2451
APIO_procNo = 2836
APIO_procNo = 1555
APIO_procNo = 3347
APIO_procNo = 3477
APIO_procNo = 3731
APIO_procNo = 1939
writeThread 1939 on CPU 147
APIO_procNo = 2963
writeThread 2963 on CPU 147
APIO_procNo = 2067
writeThread 2067 on CPU 147
APIO_procNo = 3091
writeThread 3091 on CPU 147
APIO_procNo = 3219
writeThread 3219 on CPU 147
APIO_procNo = 3859
APIO_procNo = 3603
writeThread 3603 on CPU 147
APIO_procNo = 3988
APIO_procNo = 147
writeThread 147 on CPU 147
APIO_procNo = 660
APIO_procNo = 404
APIO_procNo = 276
APIO_procNo = 788
APIO_procNo = 1044
APIO_procNo = 2324
APIO_procNo = 532
APIO_procNo = 916
APIO_procNo = 1813
writeThread 1813 on CPU 149
APIO_procNo = 1172
APIO_procNo = 1685
writeThread 1685 on CPU 149
APIO_procNo = 1300
writeThread 1300 on CPU 148
APIO_procNo = 2581
APIO_procNo = 1428
writeThread 1428 on CPU 148
APIO_procNo = 2708
APIO_procNo = 2196
APIO_procNo = 2452
APIO_procNo = 2837
APIO_procNo = 1556
APIO_procNo = 3348
APIO_procNo = 3478
APIO_procNo = 3732
APIO_procNo = 1940
writeThread 1940 on CPU 148
APIO_procNo = 2964
writeThread 2964 on CPU 148
APIO_procNo = 2068
writeThread 2068 on CPU 148
APIO_procNo = 3092
writeThread 3092 on CPU 148
APIO_procNo = 3220
writeThread 3220 on CPU 148
APIO_procNo = 3860
APIO_procNo = 3604
writeThread 3604 on CPU 148
APIO_procNo = 3989
APIO_procNo = 148
writeThread 148 on CPU 148
APIO_procNo = 661
APIO_procNo = 405
APIO_procNo = 277
APIO_procNo = 789
APIO_procNo = 1045
APIO_procNo = 2325
APIO_procNo = 533
APIO_procNo = 917
APIO_procNo = 1814
writeThread 1814 on CPU 150
APIO_procNo = 1173
APIO_procNo = 1686
writeThread 1686 on CPU 150
APIO_procNo = 1301
writeThread 1301 on CPU 149
APIO_procNo = 2582
APIO_procNo = 1429
writeThread 1429 on CPU 149
APIO_procNo = 2709
APIO_procNo = 2197
APIO_procNo = 2453
APIO_procNo = 2838
APIO_procNo = 1557
APIO_procNo = 3349
APIO_procNo = 3479
APIO_procNo = 3733
APIO_procNo = 1941
writeThread 1941 on CPU 149
APIO_procNo = 2965
writeThread 2965 on CPU 149
APIO_procNo = 2069
writeThread 2069 on CPU 149
APIO_procNo = 3093
writeThread 3093 on CPU 149
APIO_procNo = 3221
writeThread 3221 on CPU 149
APIO_procNo = 3861
APIO_procNo = 3605
writeThread 3605 on CPU 149
APIO_procNo = 3990
APIO_procNo = 149
writeThread 149 on CPU 149
APIO_procNo = 662
APIO_procNo = 406
APIO_procNo = 278
writeThread 278 on CPU 150
APIO_procNo = 790
APIO_procNo = 1046
APIO_procNo = 2326
APIO_procNo = 534
APIO_procNo = 918
APIO_procNo = 1815
writeThread 1815 on CPU 151
APIO_procNo = 1174
APIO_procNo = 1687
writeThread 1687 on CPU 151
APIO_procNo = 1302
writeThread 1302 on CPU 150
APIO_procNo = 2583
APIO_procNo = 1430
writeThread 1430 on CPU 150
APIO_procNo = 2710
APIO_procNo = 2198
APIO_procNo = 2454
APIO_procNo = 2839
APIO_procNo = 1558
APIO_procNo = 3350
APIO_procNo = 3480
APIO_procNo = 3734
APIO_procNo = 1942
writeThread 1942 on CPU 150
APIO_procNo = 2966
writeThread 2966 on CPU 150
APIO_procNo = 2070
writeThread 2070 on CPU 150
APIO_procNo = 3094
writeThread 3094 on CPU 150
APIO_procNo = 3222
writeThread 3222 on CPU 150
APIO_procNo = 3862
APIO_procNo = 3606
writeThread 3606 on CPU 150
APIO_procNo = 3991
writeThread 3991 on CPU 151
APIO_procNo = 150
writeThread 150 on CPU 150
APIO_procNo = 663
APIO_procNo = 407
APIO_procNo = 279
writeThread 279 on CPU 151
APIO_procNo = 791
APIO_procNo = 1047
APIO_procNo = 2327
writeThread 2327 on CPU 151
APIO_procNo = 535
APIO_procNo = 919
APIO_procNo = 1816
writeThread 1816 on CPU 152
APIO_procNo = 1175
APIO_procNo = 1688
writeThread 1688 on CPU 152
APIO_procNo = 1303
writeThread 1303 on CPU 151
APIO_procNo = 2584
APIO_procNo = 1431
writeThread 1431 on CPU 151
APIO_procNo = 2711
APIO_procNo = 2199
APIO_procNo = 2455
APIO_procNo = 2840
APIO_procNo = 1559
APIO_procNo = 3351
APIO_procNo = 3481
APIO_procNo = 3735
APIO_procNo = 1943
writeThread 1943 on CPU 151
APIO_procNo = 2967
writeThread 2967 on CPU 151
APIO_procNo = 2071
writeThread 2071 on CPU 151
APIO_procNo = 3095
writeThread 3095 on CPU 151
APIO_procNo = 3223
writeThread 3223 on CPU 151
APIO_procNo = 3863
APIO_procNo = 3607
writeThread 3607 on CPU 151
APIO_procNo = 3992
writeThread 3992 on CPU 152
APIO_procNo = 151
writeThread 151 on CPU 151

Starting time loop

APIO_procNo = 664
APIO_procNo = 408
APIO_procNo = 280
APIO_procNo = 792
APIO_procNo = 1048
APIO_procNo = 2328
writeThread 2328 on CPU 152
APIO_procNo = 536
APIO_procNo = 920
writeThread 920 on CPU 152
APIO_procNo = 1817
APIO_procNo = 1176
APIO_procNo = 1689
writeThread 1689 on CPU 153
APIO_procNo = 1304
APIO_procNo = 2585
APIO_procNo = 1432
writeThread 1432 on CPU 152
APIO_procNo = 2712
APIO_procNo = 2200
APIO_procNo = 2456
APIO_procNo = 2841
APIO_procNo = 1560
writeThread 1560 on CPU 152
APIO_procNo = 3352
APIO_procNo = 3482
writeThread 3482 on CPU 154
APIO_procNo = 3736
APIO_procNo = 1944
writeThread 1944 on CPU 152
APIO_procNo = 2968
writeThread 2968 on CPU 152
APIO_procNo = 2072
writeThread 2072 on CPU 152
APIO_procNo = 3096
writeThread 3096 on CPU 152
APIO_procNo = 3224
writeThread 3224 on CPU 152
APIO_procNo = 3864
APIO_procNo = 3608
writeThread 3608 on CPU 152
APIO_procNo = 3993
writeThread 3993 on CPU 153
APIO_procNo = 152
writeThread 152 on CPU 152
APIO_procNo = 665
APIO_procNo = 409
APIO_procNo = 281
APIO_procNo = 793
APIO_procNo = 1049
APIO_procNo = 2329
writeThread 2329 on CPU 153
APIO_procNo = 537
APIO_procNo = 921
writeThread 921 on CPU 153
APIO_procNo = 1818
APIO_procNo = 1177
APIO_procNo = 1690
writeThread 1690 on CPU 154
APIO_procNo = 1305
APIO_procNo = 2586
APIO_procNo = 1433
writeThread 1433 on CPU 153
APIO_procNo = 2713
APIO_procNo = 2201
APIO_procNo = 2457
APIO_procNo = 2842
APIO_procNo = 1561
APIO_procNo = 3353
APIO_procNo = 3483
writeThread 3483 on CPU 155
APIO_procNo = 3737
APIO_procNo = 1945
writeThread 1945 on CPU 153
APIO_procNo = 2969
writeThread 2969 on CPU 153
APIO_procNo = 2073
writeThread 2073 on CPU 153
APIO_procNo = 3097
writeThread 3097 on CPU 153
APIO_procNo = 3225
writeThread 3225 on CPU 153
APIO_procNo = 3865
APIO_procNo = 3609
writeThread 3609 on CPU 153
APIO_procNo = 3994
writeThread 3994 on CPU 154
APIO_procNo = 153
writeThread 153 on CPU 153
APIO_procNo = 666
APIO_procNo = 410
APIO_procNo = 282
APIO_procNo = 794
APIO_procNo = 1050
APIO_procNo = 2330
writeThread 2330 on CPU 154
APIO_procNo = 538
APIO_procNo = 922
writeThread 922 on CPU 154
APIO_procNo = 1819
APIO_procNo = 1178
APIO_procNo = 1691
writeThread 1691 on CPU 155
APIO_procNo = 1306
APIO_procNo = 2587
APIO_procNo = 1434
writeThread 1434 on CPU 154
APIO_procNo = 2714
APIO_procNo = 2202
APIO_procNo = 2458
APIO_procNo = 2843
APIO_procNo = 1562
APIO_procNo = 3354
APIO_procNo = 3484
writeThread 3484 on CPU 156
APIO_procNo = 3738
APIO_procNo = 1946
writeThread 1946 on CPU 154
APIO_procNo = 2970
writeThread 2970 on CPU 154
APIO_procNo = 2074
writeThread 2074 on CPU 154
APIO_procNo = 3098
writeThread 3098 on CPU 154
APIO_procNo = 3226
writeThread 3226 on CPU 154
APIO_procNo = 3866
APIO_procNo = 3610
writeThread 3610 on CPU 154
APIO_procNo = 3995
writeThread 3995 on CPU 155
APIO_procNo = 154
writeThread 154 on CPU 154
APIO_procNo = 667
APIO_procNo = 411
APIO_procNo = 283
APIO_procNo = 795
APIO_procNo = 1051
APIO_procNo = 2331
writeThread 2331 on CPU 155
APIO_procNo = 539
APIO_procNo = 923
writeThread 923 on CPU 155
APIO_procNo = 1820
writeThread 1820 on CPU 156
APIO_procNo = 1179
APIO_procNo = 1692
APIO_procNo = 1307
APIO_procNo = 2588
APIO_procNo = 1435
writeThread 1435 on CPU 155
APIO_procNo = 2715
APIO_procNo = 2203
APIO_procNo = 2459
APIO_procNo = 2844
APIO_procNo = 1563
APIO_procNo = 3355
APIO_procNo = 3485
writeThread 3485 on CPU 157
APIO_procNo = 3739
APIO_procNo = 1947
writeThread 1947 on CPU 155
APIO_procNo = 2971
writeThread 2971 on CPU 155
APIO_procNo = 2075
writeThread 2075 on CPU 155
APIO_procNo = 3099
writeThread 3099 on CPU 155
APIO_procNo = 3227
writeThread 3227 on CPU 155
APIO_procNo = 3867
APIO_procNo = 3611
writeThread 3611 on CPU 155
APIO_procNo = 3996
writeThread 3996 on CPU 156
APIO_procNo = 155
writeThread 155 on CPU 155
APIO_procNo = 668
APIO_procNo = 412
APIO_procNo = 284
writeThread 284 on CPU 156
APIO_procNo = 796
APIO_procNo = 1052
APIO_procNo = 2332
writeThread 2332 on CPU 156
APIO_procNo = 540
APIO_procNo = 924
writeThread 924 on CPU 156
APIO_procNo = 1821
writeThread 1821 on CPU 157
APIO_procNo = 1180
APIO_procNo = 1693
writeThread 1693 on CPU 157
APIO_procNo = 1308
APIO_procNo = 2589
APIO_procNo = 1436
writeThread 1436 on CPU 156
APIO_procNo = 2716
APIO_procNo = 2204
APIO_procNo = 2460
APIO_procNo = 2845
APIO_procNo = 1564
APIO_procNo = 3356
APIO_procNo = 3486
writeThread 3486 on CPU 158
APIO_procNo = 3740
APIO_procNo = 1948
writeThread 1948 on CPU 156
APIO_procNo = 2972
writeThread 2972 on CPU 156
APIO_procNo = 2076
writeThread 2076 on CPU 156
APIO_procNo = 3100
writeThread 3100 on CPU 156
APIO_procNo = 3228
writeThread 3228 on CPU 156
APIO_procNo = 3868
APIO_procNo = 3612
APIO_procNo = 3997
writeThread 3997 on CPU 157
APIO_procNo = 156
writeThread 156 on CPU 156
APIO_procNo = 669
APIO_procNo = 413
APIO_procNo = 285
writeThread 285 on CPU 157
APIO_procNo = 797
APIO_procNo = 1053
APIO_procNo = 2333
writeThread 2333 on CPU 157
APIO_procNo = 541
APIO_procNo = 925
writeThread 925 on CPU 157
APIO_procNo = 1822
writeThread 1822 on CPU 158
APIO_procNo = 1181
APIO_procNo = 1694
writeThread 1694 on CPU 158
APIO_procNo = 1309
APIO_procNo = 2590
APIO_procNo = 1437
writeThread 1437 on CPU 157
APIO_procNo = 2717
APIO_procNo = 2205
APIO_procNo = 2461
APIO_procNo = 2846
APIO_procNo = 1565
APIO_procNo = 3357
APIO_procNo = 3487
writeThread 3487 on CPU 159
APIO_procNo = 3741
APIO_procNo = 1949
writeThread 1949 on CPU 157
APIO_procNo = 2973
writeThread 2973 on CPU 157
APIO_procNo = 2077
writeThread 2077 on CPU 157
APIO_procNo = 3101
writeThread 3101 on CPU 157
APIO_procNo = 3229
writeThread 3229 on CPU 157
APIO_procNo = 3869
APIO_procNo = 3613
APIO_procNo = 3998
writeThread 3998 on CPU 158
APIO_procNo = 157
writeThread 157 on CPU 157
Courant Number mean: 5.192694825925887e-12 max: 2.085039370078742e-05
deltaT = 1.2e-09
Time = 1.2e-09

APIO_procNo = 670
APIO_procNo = 414
APIO_procNo = 286
writeThread 286 on CPU 158
APIO_procNo = 798
APIO_procNo = 1054
APIO_procNo = 2334
writeThread 2334 on CPU 158
APIO_procNo = 542
APIO_procNo = 926
writeThread 926 on CPU 158
APIO_procNo = 1823
writeThread 1823 on CPU 159
APIO_procNo = 1182
APIO_procNo = 1695
writeThread 1695 on CPU 159
APIO_procNo = 1310
APIO_procNo = 2591
APIO_procNo = 1438
writeThread 1438 on CPU 158
APIO_procNo = 2718
APIO_procNo = 2206
APIO_procNo = 2462
APIO_procNo = 2847
APIO_procNo = 1566
APIO_procNo = 3358
APIO_procNo = 3488
writeThread 3488 on CPU 160
APIO_procNo = 3742
APIO_procNo = 1950
writeThread 1950 on CPU 158
APIO_procNo = 2974
writeThread 2974 on CPU 158
APIO_procNo = 2078
writeThread 2078 on CPU 158
APIO_procNo = 3102
writeThread 3102 on CPU 158
APIO_procNo = 3230
writeThread 3230 on CPU 158
APIO_procNo = 3870
writeThread 3870 on CPU 158
APIO_procNo = 3614
APIO_procNo = 3999
writeThread 3999 on CPU 159
APIO_procNo = 158
writeThread 158 on CPU 158
PIMPLE: iteration 1
APIO_procNo = 671
APIO_procNo = 415
APIO_procNo = 287
writeThread 287 on CPU 159
APIO_procNo = 799
APIO_procNo = 1055
APIO_procNo = 2335
writeThread 2335 on CPU 159
APIO_procNo = 543
APIO_procNo = 927
writeThread 927 on CPU 159
APIO_procNo = 1824
writeThread 1824 on CPU 160
APIO_procNo = 1183
APIO_procNo = 1696
APIO_procNo = 1311
APIO_procNo = 2592
APIO_procNo = 1439
writeThread 1439 on CPU 159
APIO_procNo = 2719
APIO_procNo = 2207
APIO_procNo = 2463
APIO_procNo = 2848
APIO_procNo = 1567
APIO_procNo = 3359
APIO_procNo = 3489
writeThread 3489 on CPU 161
APIO_procNo = 3743
APIO_procNo = 1951
writeThread 1951 on CPU 159
APIO_procNo = 2975
writeThread 2975 on CPU 159
APIO_procNo = 2079
writeThread 2079 on CPU 159
APIO_procNo = 3103
writeThread 3103 on CPU 159
APIO_procNo = 3231
writeThread 3231 on CPU 159
APIO_procNo = 3871
writeThread 3871 on CPU 159
APIO_procNo = 3615
APIO_procNo = 4000
APIO_procNo = 159
writeThread 159 on CPU 159
APIO_procNo = 672
writeThread 672 on CPU 160
APIO_procNo = 416
APIO_procNo = 288
APIO_procNo = 800
writeThread 800 on CPU 160
APIO_procNo = 1056
APIO_procNo = 2336
APIO_procNo = 544
APIO_procNo = 928
writeThread 928 on CPU 160
APIO_procNo = 1825
writeThread 1825 on CPU 161
APIO_procNo = 1184
APIO_procNo = 1697
APIO_procNo = 1312
APIO_procNo = 2593
APIO_procNo = 1440
writeThread 1440 on CPU 160
APIO_procNo = 2720
APIO_procNo = 2208
APIO_procNo = 2464
writeThread 2464 on CPU 160
APIO_procNo = 2849
APIO_procNo = 1568
writeThread 1568 on CPU 160
APIO_procNo = 3360
writeThread 3360 on CPU 160
APIO_procNo = 3490
APIO_procNo = 3744
writeThread 3744 on CPU 160
APIO_procNo = 1952
writeThread 1952 on CPU 160
APIO_procNo = 2976
APIO_procNo = 2080
APIO_procNo = 3104
writeThread 3104 on CPU 160
APIO_procNo = 3232
writeThread 3232 on CPU 160
APIO_procNo = 3872
APIO_procNo = 3616
APIO_procNo = 4001
APIO_procNo = 160
writeThread 160 on CPU 160
APIO_procNo = 673
writeThread 673 on CPU 161
APIO_procNo = 417
APIO_procNo = 289
APIO_procNo = 801
writeThread 801 on CPU 161
APIO_procNo = 1057
APIO_procNo = 2337
APIO_procNo = 545
APIO_procNo = 929
writeThread 929 on CPU 161
APIO_procNo = 1826
writeThread 1826 on CPU 162
APIO_procNo = 1185
APIO_procNo = 1698
APIO_procNo = 1313
APIO_procNo = 2594
APIO_procNo = 1441
writeThread 1441 on CPU 161
APIO_procNo = 2721
APIO_procNo = 2209
APIO_procNo = 2465
writeThread 2465 on CPU 161
APIO_procNo = 2850
APIO_procNo = 1569
writeThread 1569 on CPU 161
APIO_procNo = 3361
writeThread 3361 on CPU 161
APIO_procNo = 3491
writeThread 3491 on CPU 163
APIO_procNo = 3745
writeThread 3745 on CPU 161
APIO_procNo = 1953
writeThread 1953 on CPU 161
APIO_procNo = 2977
writeThread 2977 on CPU 161
APIO_procNo = 2081
APIO_procNo = 3105
writeThread 3105 on CPU 161
APIO_procNo = 3233
writeThread 3233 on CPU 161
APIO_procNo = 3873
APIO_procNo = 3617
APIO_procNo = 4002
APIO_procNo = 161
writeThread 161 on CPU 161
diagonal:  Solving for rho, Initial residual = 0, Final residual = 0, No Iterations 0
APIO_procNo = 674
writeThread 674 on CPU 162
APIO_procNo = 418
APIO_procNo = 290
APIO_procNo = 802
writeThread 802 on CPU 162
APIO_procNo = 1058
APIO_procNo = 2338
APIO_procNo = 546
APIO_procNo = 930
writeThread 930 on CPU 162
APIO_procNo = 1827
writeThread 1827 on CPU 163
APIO_procNo = 1186
APIO_procNo = 1699
APIO_procNo = 1314
APIO_procNo = 2595
APIO_procNo = 1442
writeThread 1442 on CPU 162
APIO_procNo = 2722
APIO_procNo = 2210
APIO_procNo = 2466
APIO_procNo = 2851
APIO_procNo = 1570
writeThread 1570 on CPU 162
APIO_procNo = 3362
writeThread 3362 on CPU 162
APIO_procNo = 3492
writeThread 3492 on CPU 164
APIO_procNo = 3746
writeThread 3746 on CPU 162
APIO_procNo = 1954
writeThread 1954 on CPU 162
APIO_procNo = 2978
writeThread 2978 on CPU 162
APIO_procNo = 2082
APIO_procNo = 3106
writeThread 3106 on CPU 162
APIO_procNo = 3234
writeThread 3234 on CPU 162
APIO_procNo = 3874
APIO_procNo = 3618
APIO_procNo = 4003
APIO_procNo = 162
writeThread 162 on CPU 162
APIO_procNo = 675
writeThread 675 on CPU 163
APIO_procNo = 419
APIO_procNo = 291
APIO_procNo = 803
writeThread 803 on CPU 163
APIO_procNo = 1059
APIO_procNo = 2339
writeThread 2339 on CPU 163
APIO_procNo = 547
APIO_procNo = 931
writeThread 931 on CPU 163
APIO_procNo = 1828
APIO_procNo = 1187
APIO_procNo = 1700
APIO_procNo = 1315
APIO_procNo = 2596
APIO_procNo = 1443
writeThread 1443 on CPU 163
APIO_procNo = 2723
APIO_procNo = 2211
APIO_procNo = 2467
writeThread 2467 on CPU 163
APIO_procNo = 2852
APIO_procNo = 1571
writeThread 1571 on CPU 163
APIO_procNo = 3363
writeThread 3363 on CPU 163
APIO_procNo = 3493
writeThread 3493 on CPU 165
APIO_procNo = 3747
writeThread 3747 on CPU 163
APIO_procNo = 1955
writeThread 1955 on CPU 163
APIO_procNo = 2979
writeThread 2979 on CPU 163
APIO_procNo = 2083
APIO_procNo = 3107
writeThread 3107 on CPU 163
APIO_procNo = 3235
writeThread 3235 on CPU 163
APIO_procNo = 3875
APIO_procNo = 3619
APIO_procNo = 4004
APIO_procNo = 163
writeThread 163 on CPU 163
APIO_procNo = 676
writeThread 676 on CPU 164
APIO_procNo = 420
APIO_procNo = 292
APIO_procNo = 804
APIO_procNo = 1060
APIO_procNo = 2340
APIO_procNo = 548
APIO_procNo = 932
APIO_procNo = 1829
writeThread 1829 on CPU 165
APIO_procNo = 1188
APIO_procNo = 1701
APIO_procNo = 1316
APIO_procNo = 2597
APIO_procNo = 1444
writeThread 1444 on CPU 164
APIO_procNo = 2724
APIO_procNo = 2212
APIO_procNo = 2468
APIO_procNo = 2853
APIO_procNo = 1572
writeThread 1572 on CPU 164
APIO_procNo = 3364
APIO_procNo = 3494
writeThread 3494 on CPU 166
APIO_procNo = 3748
writeThread 3748 on CPU 164
APIO_procNo = 1956
writeThread 1956 on CPU 164
APIO_procNo = 2980
writeThread 2980 on CPU 164
APIO_procNo = 2084
APIO_procNo = 3108
writeThread 3108 on CPU 164
APIO_procNo = 3236
writeThread 3236 on CPU 164
APIO_procNo = 3876
writeThread 3876 on CPU 164
APIO_procNo = 3620
APIO_procNo = 4005
APIO_procNo = 164
writeThread 164 on CPU 164
APIO_procNo = 677
APIO_procNo = 421
APIO_procNo = 293
APIO_procNo = 805
APIO_procNo = 1061
APIO_procNo = 2341
APIO_procNo = 549
APIO_procNo = 933
writeThread 933 on CPU 165
APIO_procNo = 1830
writeThread 1830 on CPU 166
APIO_procNo = 1189
APIO_procNo = 1702
APIO_procNo = 1317
APIO_procNo = 2598
APIO_procNo = 1445
writeThread 1445 on CPU 165
APIO_procNo = 2725
APIO_procNo = 2213
APIO_procNo = 2469
APIO_procNo = 2854
APIO_procNo = 1573
writeThread 1573 on CPU 165
APIO_procNo = 3365
APIO_procNo = 3495
writeThread 3495 on CPU 167
APIO_procNo = 3749
writeThread 3749 on CPU 165
APIO_procNo = 1957
writeThread 1957 on CPU 165
APIO_procNo = 2981
writeThread 2981 on CPU 165
APIO_procNo = 2085
APIO_procNo = 3109
APIO_procNo = 3237
writeThread 3237 on CPU 165
APIO_procNo = 3877
writeThread 3877 on CPU 165
APIO_procNo = 3621
APIO_procNo = 4006
APIO_procNo = 165
writeThread 165 on CPU 165
APIO_procNo = 678
APIO_procNo = 422
APIO_procNo = 294
APIO_procNo = 806
APIO_procNo = 1062
APIO_procNo = 2342
APIO_procNo = 550
APIO_procNo = 934
writeThread 934 on CPU 166
APIO_procNo = 1831
writeThread 1831 on CPU 167
APIO_procNo = 1190
APIO_procNo = 1703
APIO_procNo = 1318
APIO_procNo = 2599
APIO_procNo = 1446
writeThread 1446 on CPU 166
APIO_procNo = 2726
APIO_procNo = 2214
APIO_procNo = 2470
writeThread 2470 on CPU 166
APIO_procNo = 2855
APIO_procNo = 1574
writeThread 1574 on CPU 166
APIO_procNo = 3366
writeThread 3366 on CPU 166
APIO_procNo = 3496
writeThread 3496 on CPU 168
APIO_procNo = 3750
writeThread 3750 on CPU 166
APIO_procNo = 1958
writeThread 1958 on CPU 166
APIO_procNo = 2982
writeThread 2982 on CPU 166
APIO_procNo = 2086
APIO_procNo = 3110
writeThread 3110 on CPU 166
APIO_procNo = 3238
writeThread 3238 on CPU 166
APIO_procNo = 3878
writeThread 3878 on CPU 166
APIO_procNo = 3622
APIO_procNo = 4007
APIO_procNo = 166
writeThread 166 on CPU 166
APIO_procNo = 679
writeThread 679 on CPU 167
APIO_procNo = 423
APIO_procNo = 295
APIO_procNo = 807
APIO_procNo = 1063
APIO_procNo = 2343
APIO_procNo = 551
APIO_procNo = 935
writeThread 935 on CPU 167
APIO_procNo = 1832
writeThread 1832 on CPU 168
APIO_procNo = 1191
APIO_procNo = 1704
APIO_procNo = 1319
APIO_procNo = 2600
APIO_procNo = 1447
writeThread 1447 on CPU 167
APIO_procNo = 2727
APIO_procNo = 2215
APIO_procNo = 2471
APIO_procNo = 2856
APIO_procNo = 1575
writeThread 1575 on CPU 167
APIO_procNo = 3367
APIO_procNo = 3497
writeThread 3497 on CPU 169
APIO_procNo = 3751
writeThread 3751 on CPU 167
APIO_procNo = 1959
writeThread 1959 on CPU 167
APIO_procNo = 2983
writeThread 2983 on CPU 167
APIO_procNo = 2087
APIO_procNo = 3111
writeThread 3111 on CPU 167
APIO_procNo = 3239
writeThread 3239 on CPU 167
APIO_procNo = 3879
writeThread 3879 on CPU 167
APIO_procNo = 3623
APIO_procNo = 4008
APIO_procNo = 167
writeThread 167 on CPU 167
APIO_procNo = 680
writeThread 680 on CPU 168
APIO_procNo = 424
APIO_procNo = 296
APIO_procNo = 808
writeThread 808 on CPU 168
APIO_procNo = 1064
APIO_procNo = 2344
writeThread 2344 on CPU 168
APIO_procNo = 552
APIO_procNo = 936
writeThread 936 on CPU 168
APIO_procNo = 1833
writeThread 1833 on CPU 169
APIO_procNo = 1192
APIO_procNo = 1705
APIO_procNo = 1320
APIO_procNo = 2601
APIO_procNo = 1448
writeThread 1448 on CPU 168
APIO_procNo = 2728
APIO_procNo = 2216
APIO_procNo = 2472
writeThread 2472 on CPU 168
APIO_procNo = 2857
APIO_procNo = 1576
writeThread 1576 on CPU 168
APIO_procNo = 3368
writeThread 3368 on CPU 168
APIO_procNo = 3498
writeThread 3498 on CPU 170
APIO_procNo = 3752
APIO_procNo = 1960
writeThread 1960 on CPU 168
APIO_procNo = 2984
APIO_procNo = 2088
APIO_procNo = 3112
writeThread 3112 on CPU 168
APIO_procNo = 3240
writeThread 3240 on CPU 168
APIO_procNo = 3880
APIO_procNo = 3624
APIO_procNo = 4009
APIO_procNo = 168
writeThread 168 on CPU 168
APIO_procNo = 681
writeThread 681 on CPU 169
APIO_procNo = 425
APIO_procNo = 297
APIO_procNo = 809
writeThread 809 on CPU 169
APIO_procNo = 1065
APIO_procNo = 2345
writeThread 2345 on CPU 169
APIO_procNo = 553
APIO_procNo = 937
writeThread 937 on CPU 169
APIO_procNo = 1834
writeThread 1834 on CPU 170
APIO_procNo = 1193
APIO_procNo = 1706
APIO_procNo = 1321
APIO_procNo = 2602
APIO_procNo = 1449
writeThread 1449 on CPU 169
APIO_procNo = 2729
APIO_procNo = 2217
APIO_procNo = 2473
writeThread 2473 on CPU 169
APIO_procNo = 2858
APIO_procNo = 1577
writeThread 1577 on CPU 169
APIO_procNo = 3369
writeThread 3369 on CPU 169
APIO_procNo = 3499
writeThread 3499 on CPU 171
APIO_procNo = 3753
writeThread 3753 on CPU 169
APIO_procNo = 1961
writeThread 1961 on CPU 169
APIO_procNo = 2985
APIO_procNo = 2089
writeThread 2089 on CPU 169
APIO_procNo = 3113
writeThread 3113 on CPU 169
APIO_procNo = 3241
writeThread 3241 on CPU 169
APIO_procNo = 3881
writeThread 3881 on CPU 169
APIO_procNo = 3625
APIO_procNo = 4010
APIO_procNo = 169
writeThread 169 on CPU 169
APIO_procNo = 682
writeThread 682 on CPU 170
APIO_procNo = 426
APIO_procNo = 298
APIO_procNo = 810
writeThread 810 on CPU 170
APIO_procNo = 1066
APIO_procNo = 2346
writeThread 2346 on CPU 170
APIO_procNo = 554
APIO_procNo = 938
writeThread 938 on CPU 170
APIO_procNo = 1835
writeThread 1835 on CPU 171
APIO_procNo = 1194
APIO_procNo = 1707
APIO_procNo = 1322
APIO_procNo = 2603
APIO_procNo = 1450
writeThread 1450 on CPU 170
APIO_procNo = 2730
APIO_procNo = 2218
APIO_procNo = 2474
writeThread 2474 on CPU 170
APIO_procNo = 2859
APIO_procNo = 1578
writeThread 1578 on CPU 170
APIO_procNo = 3370
writeThread 3370 on CPU 170
APIO_procNo = 3500
APIO_procNo = 3754
APIO_procNo = 1962
writeThread 1962 on CPU 170
APIO_procNo = 2986
APIO_procNo = 2090
writeThread 2090 on CPU 170
APIO_procNo = 3114
writeThread 3114 on CPU 170
APIO_procNo = 3242
writeThread 3242 on CPU 170
APIO_procNo = 3882
writeThread 3882 on CPU 170
APIO_procNo = 3626
APIO_procNo = 4011
APIO_procNo = 170
writeThread 170 on CPU 170
APIO_procNo = 683
writeThread 683 on CPU 171
APIO_procNo = 427
APIO_procNo = 299
APIO_procNo = 811
writeThread 811 on CPU 171
APIO_procNo = 1067
APIO_procNo = 2347
writeThread 2347 on CPU 171
APIO_procNo = 555
APIO_procNo = 939
writeThread 939 on CPU 171
APIO_procNo = 1836
writeThread 1836 on CPU 172
APIO_procNo = 1195
APIO_procNo = 1708
APIO_procNo = 1323
APIO_procNo = 2604
APIO_procNo = 1451
writeThread 1451 on CPU 171
APIO_procNo = 2731
APIO_procNo = 2219
APIO_procNo = 2475
writeThread 2475 on CPU 171
APIO_procNo = 2860
APIO_procNo = 1579
writeThread 1579 on CPU 171
APIO_procNo = 3371
writeThread 3371 on CPU 171
APIO_procNo = 3501
writeThread 3501 on CPU 173
APIO_procNo = 3755
writeThread 3755 on CPU 171
APIO_procNo = 1963
writeThread 1963 on CPU 171
APIO_procNo = 2987
APIO_procNo = 2091
writeThread 2091 on CPU 171
APIO_procNo = 3115
writeThread 3115 on CPU 171
APIO_procNo = 3243
writeThread 3243 on CPU 171
APIO_procNo = 3883
writeThread 3883 on CPU 171
APIO_procNo = 3627
APIO_procNo = 4012
APIO_procNo = 171
writeThread 171 on CPU 171
APIO_procNo = 684
writeThread 684 on CPU 172
APIO_procNo = 428
APIO_procNo = 300
APIO_procNo = 812
writeThread 812 on CPU 172
APIO_procNo = 1068
APIO_procNo = 2348
APIO_procNo = 556
APIO_procNo = 940
writeThread 940 on CPU 172
APIO_procNo = 1837
writeThread 1837 on CPU 173
APIO_procNo = 1196
APIO_procNo = 1709
APIO_procNo = 1324
APIO_procNo = 2605
APIO_procNo = 1452
writeThread 1452 on CPU 172
APIO_procNo = 2732
APIO_procNo = 2220
APIO_procNo = 2476
writeThread 2476 on CPU 172
APIO_procNo = 2861
APIO_procNo = 1580
writeThread 1580 on CPU 172
APIO_procNo = 3372
writeThread 3372 on CPU 172
APIO_procNo = 3502
writeThread 3502 on CPU 174
APIO_procNo = 3756
writeThread 3756 on CPU 172
APIO_procNo = 1964
writeThread 1964 on CPU 172
APIO_procNo = 2988
APIO_procNo = 2092
APIO_procNo = 3116
writeThread 3116 on CPU 172
APIO_procNo = 3244
writeThread 3244 on CPU 172
APIO_procNo = 3884
writeThread 3884 on CPU 172
APIO_procNo = 3628
APIO_procNo = 4013
APIO_procNo = 172
writeThread 172 on CPU 172
APIO_procNo = 685
writeThread 685 on CPU 173
APIO_procNo = 429
APIO_procNo = 301
APIO_procNo = 813
writeThread 813 on CPU 173
APIO_procNo = 1069
APIO_procNo = 2349
APIO_procNo = 557
APIO_procNo = 941
writeThread 941 on CPU 173
APIO_procNo = 1838
writeThread 1838 on CPU 174
APIO_procNo = 1197
APIO_procNo = 1710
APIO_procNo = 1325
APIO_procNo = 2606
APIO_procNo = 1453
writeThread 1453 on CPU 173
APIO_procNo = 2733
APIO_procNo = 2221
APIO_procNo = 2477
writeThread 2477 on CPU 173
APIO_procNo = 2862
APIO_procNo = 1581
APIO_procNo = 3373
writeThread 3373 on CPU 173
APIO_procNo = 3503
writeThread 3503 on CPU 175
APIO_procNo = 3757
writeThread 3757 on CPU 173
APIO_procNo = 1965
writeThread 1965 on CPU 173
APIO_procNo = 2989
APIO_procNo = 2093
APIO_procNo = 3117
writeThread 3117 on CPU 173
APIO_procNo = 3245
writeThread 3245 on CPU 173
APIO_procNo = 3885
writeThread 3885 on CPU 173
APIO_procNo = 3629
APIO_procNo = 4014
APIO_procNo = 173
writeThread 173 on CPU 173
APIO_procNo = 686
writeThread 686 on CPU 174
APIO_procNo = 430
APIO_procNo = 302
APIO_procNo = 814
writeThread 814 on CPU 174
APIO_procNo = 1070
APIO_procNo = 2350
APIO_procNo = 558
APIO_procNo = 942
writeThread 942 on CPU 174
APIO_procNo = 1839
writeThread 1839 on CPU 175
APIO_procNo = 1198
APIO_procNo = 1711
APIO_procNo = 1326
APIO_procNo = 2607
APIO_procNo = 1454
writeThread 1454 on CPU 174
APIO_procNo = 2734
APIO_procNo = 2222
APIO_procNo = 2478
writeThread 2478 on CPU 174
APIO_procNo = 2863
APIO_procNo = 1582
APIO_procNo = 3374
writeThread 3374 on CPU 174
APIO_procNo = 3504
writeThread 3504 on CPU 176
APIO_procNo = 3758
writeThread 3758 on CPU 174
APIO_procNo = 1966
writeThread 1966 on CPU 174
APIO_procNo = 2990
APIO_procNo = 2094
APIO_procNo = 3118
writeThread 3118 on CPU 174
APIO_procNo = 3246
writeThread 3246 on CPU 174
APIO_procNo = 3886
writeThread 3886 on CPU 174
APIO_procNo = 3630
APIO_procNo = 4015
APIO_procNo = 174
writeThread 174 on CPU 174
APIO_procNo = 687
writeThread 687 on CPU 175
APIO_procNo = 431
APIO_procNo = 303
APIO_procNo = 815
writeThread 815 on CPU 175
APIO_procNo = 1071
APIO_procNo = 2351
APIO_procNo = 559
APIO_procNo = 943
writeThread 943 on CPU 175
APIO_procNo = 1840
APIO_procNo = 1199
APIO_procNo = 1712
writeThread 1712 on CPU 176
APIO_procNo = 1327
APIO_procNo = 2608
writeThread 2608 on CPU 176
APIO_procNo = 1455
writeThread 1455 on CPU 175
APIO_procNo = 2735
APIO_procNo = 2223
APIO_procNo = 2479
writeThread 2479 on CPU 175
APIO_procNo = 2864
writeThread 2864 on CPU 176
APIO_procNo = 1583
writeThread 1583 on CPU 175
APIO_procNo = 3375
writeThread 3375 on CPU 175
APIO_procNo = 3505
writeThread 3505 on CPU 177
APIO_procNo = 3759
writeThread 3759 on CPU 175
APIO_procNo = 1967
writeThread 1967 on CPU 175
APIO_procNo = 2991
APIO_procNo = 2095
APIO_procNo = 3119
writeThread 3119 on CPU 175
APIO_procNo = 3247
writeThread 3247 on CPU 175
APIO_procNo = 3887
writeThread 3887 on CPU 175
APIO_procNo = 3631
APIO_procNo = 4016
APIO_procNo = 175
writeThread 175 on CPU 175
APIO_procNo = 688
writeThread 688 on CPU 176
APIO_procNo = 432
writeThread 432 on CPU 176
APIO_procNo = 304
writeThread 304 on CPU 176
APIO_procNo = 816
writeThread 816 on CPU 176
APIO_procNo = 1072
APIO_procNo = 2352
writeThread 2352 on CPU 176
APIO_procNo = 560
writeThread 560 on CPU 176
APIO_procNo = 944
writeThread 944 on CPU 176
APIO_procNo = 1841
APIO_procNo = 1200
writeThread 1200 on CPU 176
APIO_procNo = 1713
writeThread 1713 on CPU 177
APIO_procNo = 1328
writeThread 1328 on CPU 176
APIO_procNo = 2609
writeThread 2609 on CPU 177
APIO_procNo = 1456
writeThread 1456 on CPU 176
APIO_procNo = 2736
APIO_procNo = 2224
APIO_procNo = 2480
APIO_procNo = 2865
writeThread 2865 on CPU 177
APIO_procNo = 1584
APIO_procNo = 3376
writeThread 3376 on CPU 176
APIO_procNo = 3506
writeThread 3506 on CPU 178
APIO_procNo = 3760
writeThread 3760 on CPU 176
APIO_procNo = 1968
writeThread 1968 on CPU 176
APIO_procNo = 2992
writeThread 2992 on CPU 176
APIO_procNo = 2096
writeThread 2096 on CPU 176
APIO_procNo = 3120
writeThread 3120 on CPU 176
APIO_procNo = 3248
writeThread 3248 on CPU 176
APIO_procNo = 3888
writeThread 3888 on CPU 176
APIO_procNo = 3632
writeThread 3632 on CPU 176
APIO_procNo = 4017
APIO_procNo = 176
writeThread 176 on CPU 176
APIO_procNo = 689
writeThread 689 on CPU 177
APIO_procNo = 433
writeThread 433 on CPU 177
APIO_procNo = 305
writeThread 305 on CPU 177
APIO_procNo = 817
writeThread 817 on CPU 177
APIO_procNo = 1073
APIO_procNo = 2353
writeThread 2353 on CPU 177
APIO_procNo = 561
writeThread 561 on CPU 177
APIO_procNo = 945
writeThread 945 on CPU 177
APIO_procNo = 1842
APIO_procNo = 1201
writeThread 1201 on CPU 177
APIO_procNo = 1714
writeThread 1714 on CPU 178
APIO_procNo = 1329
writeThread 1329 on CPU 177
APIO_procNo = 2610
writeThread 2610 on CPU 178
APIO_procNo = 1457
writeThread 1457 on CPU 177
APIO_procNo = 2737
APIO_procNo = 2225
writeThread 2225 on CPU 177
APIO_procNo = 2481
APIO_procNo = 2866
writeThread 2866 on CPU 178
APIO_procNo = 1585
APIO_procNo = 3377
writeThread 3377 on CPU 177
APIO_procNo = 3507
writeThread 3507 on CPU 179
APIO_procNo = 3761
writeThread 3761 on CPU 177
APIO_procNo = 1969
writeThread 1969 on CPU 177
APIO_procNo = 2993
writeThread 2993 on CPU 177
APIO_procNo = 2097
writeThread 2097 on CPU 177
APIO_procNo = 3121
writeThread 3121 on CPU 177
APIO_procNo = 3249
writeThread 3249 on CPU 177
APIO_procNo = 3889
writeThread 3889 on CPU 177
APIO_procNo = 3633
writeThread 3633 on CPU 177
APIO_procNo = 4018
APIO_procNo = 177
writeThread 177 on CPU 177
APIO_procNo = 690
writeThread 690 on CPU 178
APIO_procNo = 434
writeThread 434 on CPU 178
APIO_procNo = 306
writeThread 306 on CPU 178
APIO_procNo = 818
writeThread 818 on CPU 178
APIO_procNo = 1074
APIO_procNo = 2354
writeThread 2354 on CPU 178
APIO_procNo = 562
writeThread 562 on CPU 178
APIO_procNo = 946
APIO_procNo = 1843
APIO_procNo = 1202
writeThread 1202 on CPU 178
APIO_procNo = 1715
writeThread 1715 on CPU 179
APIO_procNo = 1330
writeThread 1330 on CPU 178
APIO_procNo = 2611
writeThread 2611 on CPU 179
APIO_procNo = 1458
writeThread 1458 on CPU 178
APIO_procNo = 2738
APIO_procNo = 2226
writeThread 2226 on CPU 178
APIO_procNo = 2482
APIO_procNo = 2867
writeThread 2867 on CPU 179
APIO_procNo = 1586
APIO_procNo = 3378
writeThread 3378 on CPU 178
APIO_procNo = 3508
writeThread 3508 on CPU 180
APIO_procNo = 3762
writeThread 3762 on CPU 178
APIO_procNo = 1970
writeThread 1970 on CPU 178
APIO_procNo = 2994
writeThread 2994 on CPU 178
APIO_procNo = 2098
writeThread 2098 on CPU 178
APIO_procNo = 3122
writeThread 3122 on CPU 178
APIO_procNo = 3250
writeThread 3250 on CPU 178
APIO_procNo = 3890
writeThread 3890 on CPU 178
APIO_procNo = 3634
writeThread 3634 on CPU 178
APIO_procNo = 4019
APIO_procNo = 178
writeThread 178 on CPU 178
APIO_procNo = 691
writeThread 691 on CPU 179
APIO_procNo = 435
writeThread 435 on CPU 179
APIO_procNo = 307
writeThread 307 on CPU 179
APIO_procNo = 819
writeThread 819 on CPU 179
APIO_procNo = 1075
APIO_procNo = 2355
writeThread 2355 on CPU 179
APIO_procNo = 563
writeThread 563 on CPU 179
APIO_procNo = 947
writeThread 947 on CPU 179
APIO_procNo = 1844
APIO_procNo = 1203
writeThread 1203 on CPU 179
APIO_procNo = 1716
writeThread 1716 on CPU 180
APIO_procNo = 1331
writeThread 1331 on CPU 179
APIO_procNo = 2612
APIO_procNo = 1459
writeThread 1459 on CPU 179
APIO_procNo = 2739
APIO_procNo = 2227
writeThread 2227 on CPU 179
APIO_procNo = 2483
APIO_procNo = 2868
writeThread 2868 on CPU 180
APIO_procNo = 1587
APIO_procNo = 3379
writeThread 3379 on CPU 179
APIO_procNo = 3509
writeThread 3509 on CPU 181
APIO_procNo = 3763
writeThread 3763 on CPU 179
APIO_procNo = 1971
writeThread 1971 on CPU 179
APIO_procNo = 2995
writeThread 2995 on CPU 179
APIO_procNo = 2099
writeThread 2099 on CPU 179
APIO_procNo = 3123
writeThread 3123 on CPU 179
APIO_procNo = 3251
writeThread 3251 on CPU 179
APIO_procNo = 3891
writeThread 3891 on CPU 179
APIO_procNo = 3635
writeThread 3635 on CPU 179
APIO_procNo = 4020
APIO_procNo = 179
writeThread 179 on CPU 179
APIO_procNo = 692
writeThread 692 on CPU 180
APIO_procNo = 436
writeThread 436 on CPU 180
APIO_procNo = 308
writeThread 308 on CPU 180
APIO_procNo = 820
APIO_procNo = 1076
APIO_procNo = 2356
APIO_procNo = 564
writeThread 564 on CPU 180
APIO_procNo = 948
writeThread 948 on CPU 180
APIO_procNo = 1845
APIO_procNo = 1204
APIO_procNo = 1717
writeThread 1717 on CPU 181
APIO_procNo = 1332
APIO_procNo = 2613
APIO_procNo = 1460
writeThread 1460 on CPU 180
APIO_procNo = 2740
APIO_procNo = 2228
writeThread 2228 on CPU 180
APIO_procNo = 2484
writeThread 2484 on CPU 180
APIO_procNo = 2869
writeThread 2869 on CPU 181
APIO_procNo = 1588
APIO_procNo = 3380
writeThread 3380 on CPU 180
APIO_procNo = 3510
writeThread 3510 on CPU 182
APIO_procNo = 3764
writeThread 3764 on CPU 180
APIO_procNo = 1972
writeThread 1972 on CPU 180
APIO_procNo = 2996
writeThread 2996 on CPU 180
APIO_procNo = 2100
writeThread 2100 on CPU 180
APIO_procNo = 3124
writeThread 3124 on CPU 180
APIO_procNo = 3252
writeThread 3252 on CPU 180
APIO_procNo = 3892
writeThread 3892 on CPU 180
APIO_procNo = 3636
APIO_procNo = 4021
APIO_procNo = 180
writeThread 180 on CPU 180
APIO_procNo = 693
writeThread 693 on CPU 181
APIO_procNo = 437
writeThread 437 on CPU 181
APIO_procNo = 309
writeThread 309 on CPU 181
APIO_procNo = 821
APIO_procNo = 1077
writeThread 1077 on CPU 181
APIO_procNo = 2357
APIO_procNo = 565
writeThread 565 on CPU 181
APIO_procNo = 949
writeThread 949 on CPU 181
APIO_procNo = 1846
APIO_procNo = 1205
APIO_procNo = 1718
writeThread 1718 on CPU 182
APIO_procNo = 1333
writeThread 1333 on CPU 181
APIO_procNo = 2614
APIO_procNo = 1461
writeThread 1461 on CPU 181
APIO_procNo = 2741
APIO_procNo = 2229
writeThread 2229 on CPU 181
APIO_procNo = 2485
writeThread 2485 on CPU 181
APIO_procNo = 2870
writeThread 2870 on CPU 182
APIO_procNo = 1589
APIO_procNo = 3381
writeThread 3381 on CPU 181
APIO_procNo = 3511
writeThread 3511 on CPU 183
APIO_procNo = 3765
writeThread 3765 on CPU 181
APIO_procNo = 1973
writeThread 1973 on CPU 181
APIO_procNo = 2997
writeThread 2997 on CPU 181
APIO_procNo = 2101
writeThread 2101 on CPU 181
APIO_procNo = 3125
writeThread 3125 on CPU 181
APIO_procNo = 3253
writeThread 3253 on CPU 181
APIO_procNo = 3893
writeThread 3893 on CPU 181
APIO_procNo = 3637
APIO_procNo = 4022
APIO_procNo = 181
writeThread 181 on CPU 181
APIO_procNo = 694
writeThread 694 on CPU 182
APIO_procNo = 438
writeThread 438 on CPU 182
APIO_procNo = 310
writeThread 310 on CPU 182
APIO_procNo = 822
APIO_procNo = 1078
writeThread 1078 on CPU 182
APIO_procNo = 2358
APIO_procNo = 566
writeThread 566 on CPU 182
APIO_procNo = 950
writeThread 950 on CPU 182
APIO_procNo = 1847
APIO_procNo = 1206
APIO_procNo = 1719
writeThread 1719 on CPU 183
APIO_procNo = 1334
writeThread 1334 on CPU 182
APIO_procNo = 2615
APIO_procNo = 1462
writeThread 1462 on CPU 182
APIO_procNo = 2742
APIO_procNo = 2230
writeThread 2230 on CPU 182
APIO_procNo = 2486
writeThread 2486 on CPU 182
APIO_procNo = 2871
writeThread 2871 on CPU 183
APIO_procNo = 1590
APIO_procNo = 3382
writeThread 3382 on CPU 182
APIO_procNo = 3512
writeThread 3512 on CPU 184
APIO_procNo = 3766
writeThread 3766 on CPU 182
APIO_procNo = 1974
writeThread 1974 on CPU 182
APIO_procNo = 2998
writeThread 2998 on CPU 182
APIO_procNo = 2102
writeThread 2102 on CPU 182
APIO_procNo = 3126
writeThread 3126 on CPU 182
APIO_procNo = 3254
writeThread 3254 on CPU 182
APIO_procNo = 3894
writeThread 3894 on CPU 182
APIO_procNo = 3638
APIO_procNo = 4023
writeThread 4023 on CPU 183
APIO_procNo = 182
writeThread 182 on CPU 182
APIO_procNo = 695
writeThread 695 on CPU 183
APIO_procNo = 439
APIO_procNo = 311
writeThread 311 on CPU 183
APIO_procNo = 823
APIO_procNo = 1079
writeThread 1079 on CPU 183
APIO_procNo = 2359
APIO_procNo = 567
writeThread 567 on CPU 183
APIO_procNo = 951
writeThread 951 on CPU 183
APIO_procNo = 1848
writeThread 1848 on CPU 184
APIO_procNo = 1207
writeThread 1207 on CPU 183
APIO_procNo = 1720
writeThread 1720 on CPU 184
APIO_procNo = 1335
writeThread 1335 on CPU 183
APIO_procNo = 2616
APIO_procNo = 1463
writeThread 1463 on CPU 183
APIO_procNo = 2743
APIO_procNo = 2231
writeThread 2231 on CPU 183
APIO_procNo = 2487
writeThread 2487 on CPU 183
APIO_procNo = 2872
writeThread 2872 on CPU 184
APIO_procNo = 1591
APIO_procNo = 3383
writeThread 3383 on CPU 183
APIO_procNo = 3513
writeThread 3513 on CPU 185
APIO_procNo = 3767
writeThread 3767 on CPU 183
APIO_procNo = 1975
APIO_procNo = 2999
writeThread 2999 on CPU 183
APIO_procNo = 2103
writeThread 2103 on CPU 183
APIO_procNo = 3127
writeThread 3127 on CPU 183
APIO_procNo = 3255
writeThread 3255 on CPU 183
APIO_procNo = 3895
writeThread 3895 on CPU 183
APIO_procNo = 3639
APIO_procNo = 4024
APIO_procNo = 183
writeThread 183 on CPU 183
APIO_procNo = 696
writeThread 696 on CPU 184
APIO_procNo = 440
writeThread 440 on CPU 184
APIO_procNo = 312
writeThread 312 on CPU 184
APIO_procNo = 824
APIO_procNo = 1080
APIO_procNo = 2360
writeThread 2360 on CPU 184
APIO_procNo = 568
writeThread 568 on CPU 184
APIO_procNo = 952
writeThread 952 on CPU 184
APIO_procNo = 1849
writeThread 1849 on CPU 185
APIO_procNo = 1208
writeThread 1208 on CPU 184
APIO_procNo = 1721
writeThread 1721 on CPU 185
APIO_procNo = 1336
writeThread 1336 on CPU 184
APIO_procNo = 2617
writeThread 2617 on CPU 185
APIO_procNo = 1464
writeThread 1464 on CPU 184
APIO_procNo = 2744
writeThread 2744 on CPU 184
APIO_procNo = 2232
APIO_procNo = 2488
writeThread 2488 on CPU 184
APIO_procNo = 2873
writeThread 2873 on CPU 185
APIO_procNo = 1592
APIO_procNo = 3384
writeThread 3384 on CPU 184
APIO_procNo = 3514
writeThread 3514 on CPU 186
APIO_procNo = 3768
writeThread 3768 on CPU 184
APIO_procNo = 1976
writeThread 1976 on CPU 184
APIO_procNo = 3000
writeThread 3000 on CPU 184
APIO_procNo = 2104
writeThread 2104 on CPU 184
APIO_procNo = 3128
writeThread 3128 on CPU 184
APIO_procNo = 3256
writeThread 3256 on CPU 184
APIO_procNo = 3896
writeThread 3896 on CPU 184
APIO_procNo = 3640
APIO_procNo = 4025
APIO_procNo = 184
writeThread 184 on CPU 184
APIO_procNo = 697
writeThread 697 on CPU 185
APIO_procNo = 441
writeThread 441 on CPU 185
APIO_procNo = 313
writeThread 313 on CPU 185
APIO_procNo = 825
APIO_procNo = 1081
writeThread 1081 on CPU 185
APIO_procNo = 2361
writeThread 2361 on CPU 185
APIO_procNo = 569
writeThread 569 on CPU 185
APIO_procNo = 953
writeThread 953 on CPU 185
APIO_procNo = 1850
writeThread 1850 on CPU 186
APIO_procNo = 1209
writeThread 1209 on CPU 185
APIO_procNo = 1722
writeThread 1722 on CPU 186
APIO_procNo = 1337
writeThread 1337 on CPU 185
APIO_procNo = 2618
writeThread 2618 on CPU 186
APIO_procNo = 1465
writeThread 1465 on CPU 185
APIO_procNo = 2745
writeThread 2745 on CPU 185
APIO_procNo = 2233
APIO_procNo = 2489
writeThread 2489 on CPU 185
APIO_procNo = 2874
writeThread 2874 on CPU 186
APIO_procNo = 1593
APIO_procNo = 3385
writeThread 3385 on CPU 185
APIO_procNo = 3515
writeThread 3515 on CPU 187
APIO_procNo = 3769
writeThread 3769 on CPU 185
APIO_procNo = 1977
writeThread 1977 on CPU 185
APIO_procNo = 3001
writeThread 3001 on CPU 185
APIO_procNo = 2105
writeThread 2105 on CPU 185
APIO_procNo = 3129
writeThread 3129 on CPU 185
APIO_procNo = 3257
writeThread 3257 on CPU 185
APIO_procNo = 3897
writeThread 3897 on CPU 185
APIO_procNo = 3641
APIO_procNo = 4026
APIO_procNo = 185
writeThread 185 on CPU 185
APIO_procNo = 698
writeThread 698 on CPU 186
APIO_procNo = 442
writeThread 442 on CPU 186
APIO_procNo = 314
writeThread 314 on CPU 186
APIO_procNo = 826
APIO_procNo = 1082
APIO_procNo = 2362
writeThread 2362 on CPU 186
APIO_procNo = 570
writeThread 570 on CPU 186
APIO_procNo = 954
writeThread 954 on CPU 186
APIO_procNo = 1851
writeThread 1851 on CPU 187
APIO_procNo = 1210
writeThread 1210 on CPU 186
APIO_procNo = 1723
writeThread 1723 on CPU 187
APIO_procNo = 1338
writeThread 1338 on CPU 186
APIO_procNo = 2619
writeThread 2619 on CPU 187
APIO_procNo = 1466
writeThread 1466 on CPU 186
APIO_procNo = 2746
writeThread 2746 on CPU 186
APIO_procNo = 2234
APIO_procNo = 2490
writeThread 2490 on CPU 186
APIO_procNo = 2875
writeThread 2875 on CPU 187
APIO_procNo = 1594
writeThread 1594 on CPU 186
APIO_procNo = 3386
writeThread 3386 on CPU 186
APIO_procNo = 3516
writeThread 3516 on CPU 188
APIO_procNo = 3770
writeThread 3770 on CPU 186
APIO_procNo = 1978
writeThread 1978 on CPU 186
APIO_procNo = 3002
writeThread 3002 on CPU 186
APIO_procNo = 2106
writeThread 2106 on CPU 186
APIO_procNo = 3130
writeThread 3130 on CPU 186
APIO_procNo = 3258
writeThread 3258 on CPU 186
APIO_procNo = 3898
writeThread 3898 on CPU 186
APIO_procNo = 3642
APIO_procNo = 4027
APIO_procNo = 186
writeThread 186 on CPU 186
APIO_procNo = 699
writeThread 699 on CPU 187
APIO_procNo = 443
writeThread 443 on CPU 187
APIO_procNo = 315
writeThread 315 on CPU 187
APIO_procNo = 827
APIO_procNo = 1083
APIO_procNo = 2363
writeThread 2363 on CPU 187
APIO_procNo = 571
writeThread 571 on CPU 187
APIO_procNo = 955
writeThread 955 on CPU 187
APIO_procNo = 1852
APIO_procNo = 1211
writeThread 1211 on CPU 187
APIO_procNo = 1724
writeThread 1724 on CPU 188
APIO_procNo = 1339
writeThread 1339 on CPU 187
APIO_procNo = 2620
writeThread 2620 on CPU 188
APIO_procNo = 1467
writeThread 1467 on CPU 187
APIO_procNo = 2747
writeThread 2747 on CPU 187
APIO_procNo = 2235
APIO_procNo = 2491
writeThread 2491 on CPU 187
APIO_procNo = 2876
writeThread 2876 on CPU 188
APIO_procNo = 1595
writeThread 1595 on CPU 187
APIO_procNo = 3387
writeThread 3387 on CPU 187
APIO_procNo = 3517
writeThread 3517 on CPU 189
APIO_procNo = 3771
writeThread 3771 on CPU 187
APIO_procNo = 1979
writeThread 1979 on CPU 187
APIO_procNo = 3003
writeThread 3003 on CPU 187
APIO_procNo = 2107
writeThread 2107 on CPU 187
APIO_procNo = 3131
writeThread 3131 on CPU 187
APIO_procNo = 3259
writeThread 3259 on CPU 187
APIO_procNo = 3899
writeThread 3899 on CPU 187
APIO_procNo = 3643
APIO_procNo = 4028
writeThread 4028 on CPU 188
APIO_procNo = 187
writeThread 187 on CPU 187
APIO_procNo = 700
writeThread 700 on CPU 188
APIO_procNo = 444
writeThread 444 on CPU 188
APIO_procNo = 316
writeThread 316 on CPU 188
APIO_procNo = 828
APIO_procNo = 1084
APIO_procNo = 2364
writeThread 2364 on CPU 188
APIO_procNo = 572
APIO_procNo = 956
writeThread 956 on CPU 188
APIO_procNo = 1853
APIO_procNo = 1212
writeThread 1212 on CPU 188
APIO_procNo = 1725
writeThread 1725 on CPU 189
APIO_procNo = 1340
writeThread 1340 on CPU 188
APIO_procNo = 2621
writeThread 2621 on CPU 189
APIO_procNo = 1468
writeThread 1468 on CPU 188
APIO_procNo = 2748
writeThread 2748 on CPU 188
APIO_procNo = 2236
writeThread 2236 on CPU 188
APIO_procNo = 2492
writeThread 2492 on CPU 188
APIO_procNo = 2877
writeThread 2877 on CPU 189
APIO_procNo = 1596
writeThread 1596 on CPU 188
APIO_procNo = 3388
writeThread 3388 on CPU 188
APIO_procNo = 3518
writeThread 3518 on CPU 190
APIO_procNo = 3772
writeThread 3772 on CPU 188
APIO_procNo = 1980
writeThread 1980 on CPU 188
APIO_procNo = 3004
writeThread 3004 on CPU 188
APIO_procNo = 2108
writeThread 2108 on CPU 188
APIO_procNo = 3132
writeThread 3132 on CPU 188
APIO_procNo = 3260
writeThread 3260 on CPU 188
APIO_procNo = 3900
writeThread 3900 on CPU 188
APIO_procNo = 3644
APIO_procNo = 4029
writeThread 4029 on CPU 189
APIO_procNo = 188
writeThread 188 on CPU 188
APIO_procNo = 701
writeThread 701 on CPU 189
APIO_procNo = 445
writeThread 445 on CPU 189
APIO_procNo = 317
writeThread 317 on CPU 189
APIO_procNo = 829
APIO_procNo = 1085
APIO_procNo = 2365
writeThread 2365 on CPU 189
APIO_procNo = 573
writeThread 573 on CPU 189
APIO_procNo = 957
writeThread 957 on CPU 189
APIO_procNo = 1854
APIO_procNo = 1213
writeThread 1213 on CPU 189
APIO_procNo = 1726
writeThread 1726 on CPU 190
APIO_procNo = 1341
writeThread 1341 on CPU 189
APIO_procNo = 2622
writeThread 2622 on CPU 190
APIO_procNo = 1469
writeThread 1469 on CPU 189
APIO_procNo = 2749
writeThread 2749 on CPU 189
APIO_procNo = 2237
writeThread 2237 on CPU 189
APIO_procNo = 2493
writeThread 2493 on CPU 189
APIO_procNo = 2878
writeThread 2878 on CPU 190
APIO_procNo = 1597
writeThread 1597 on CPU 189
APIO_procNo = 3389
writeThread 3389 on CPU 189
APIO_procNo = 3519
writeThread 3519 on CPU 191
APIO_procNo = 3773
writeThread 3773 on CPU 189
APIO_procNo = 1981
writeThread 1981 on CPU 189
APIO_procNo = 3005
writeThread 3005 on CPU 189
APIO_procNo = 2109
writeThread 2109 on CPU 189
APIO_procNo = 3133
writeThread 3133 on CPU 189
APIO_procNo = 3261
writeThread 3261 on CPU 189
APIO_procNo = 3901
writeThread 3901 on CPU 189
APIO_procNo = 3645
APIO_procNo = 4030
writeThread 4030 on CPU 190
APIO_procNo = 189
writeThread 189 on CPU 189
APIO_procNo = 702
writeThread 702 on CPU 190
APIO_procNo = 446
writeThread 446 on CPU 190
APIO_procNo = 318
writeThread 318 on CPU 190
APIO_procNo = 830
APIO_procNo = 1086
APIO_procNo = 2366
writeThread 2366 on CPU 190
APIO_procNo = 574
writeThread 574 on CPU 190
APIO_procNo = 958
writeThread 958 on CPU 190
APIO_procNo = 1855
APIO_procNo = 1214
writeThread 1214 on CPU 190
APIO_procNo = 1727
writeThread 1727 on CPU 191
APIO_procNo = 1342
writeThread 1342 on CPU 190
APIO_procNo = 2623
writeThread 2623 on CPU 191
APIO_procNo = 1470
writeThread 1470 on CPU 190
APIO_procNo = 2750
writeThread 2750 on CPU 190
APIO_procNo = 2238
writeThread 2238 on CPU 190
APIO_procNo = 2494
writeThread 2494 on CPU 190
APIO_procNo = 2879
writeThread 2879 on CPU 191
APIO_procNo = 1598
writeThread 1598 on CPU 190
APIO_procNo = 3390
writeThread 3390 on CPU 190
APIO_procNo = 3520
writeThread 3520 on CPU 192
APIO_procNo = 3774
writeThread 3774 on CPU 190
APIO_procNo = 1982
writeThread 1982 on CPU 190
APIO_procNo = 3006
writeThread 3006 on CPU 190
APIO_procNo = 2110
writeThread 2110 on CPU 190
APIO_procNo = 3134
writeThread 3134 on CPU 190
APIO_procNo = 3262
writeThread 3262 on CPU 190
APIO_procNo = 3902
writeThread 3902 on CPU 190
APIO_procNo = 3646
APIO_procNo = 4031
writeThread 4031 on CPU 191
APIO_procNo = 190
writeThread 190 on CPU 190
APIO_procNo = 703
writeThread 703 on CPU 191
APIO_procNo = 447
writeThread 447 on CPU 191
APIO_procNo = 319
writeThread 319 on CPU 191
APIO_procNo = 831
writeThread 831 on CPU 191
APIO_procNo = 1087
APIO_procNo = 2367
writeThread 2367 on CPU 191
APIO_procNo = 575
writeThread 575 on CPU 191
APIO_procNo = 959
writeThread 959 on CPU 191
APIO_procNo = 1856
APIO_procNo = 1215
writeThread 1215 on CPU 191
APIO_procNo = 1728
writeThread 1728 on CPU 192
APIO_procNo = 1343
writeThread 1343 on CPU 191
APIO_procNo = 2624
APIO_procNo = 1471
writeThread 1471 on CPU 191
APIO_procNo = 2751
writeThread 2751 on CPU 191
APIO_procNo = 2239
writeThread 2239 on CPU 191
APIO_procNo = 2495
writeThread 2495 on CPU 191
APIO_procNo = 2880
writeThread 2880 on CPU 192
APIO_procNo = 1599
writeThread 1599 on CPU 191
APIO_procNo = 3391
writeThread 3391 on CPU 191
APIO_procNo = 3521
writeThread 3521 on CPU 193
APIO_procNo = 3775
writeThread 3775 on CPU 191
APIO_procNo = 1983
writeThread 1983 on CPU 191
APIO_procNo = 3007
writeThread 3007 on CPU 191
APIO_procNo = 2111
writeThread 2111 on CPU 191
APIO_procNo = 3135
writeThread 3135 on CPU 191
APIO_procNo = 3263
writeThread 3263 on CPU 191
APIO_procNo = 3903
writeThread 3903 on CPU 191
APIO_procNo = 3647
APIO_procNo = 4032
writeThread 4032 on CPU 192
APIO_procNo = 191
writeThread 191 on CPU 191
APIO_procNo = 704
writeThread 704 on CPU 192
APIO_procNo = 448
APIO_procNo = 320
APIO_procNo = 832
writeThread 832 on CPU 192
APIO_procNo = 1088
writeThread 1088 on CPU 192
APIO_procNo = 2368
writeThread 2368 on CPU 192
APIO_procNo = 576
APIO_procNo = 960
writeThread 960 on CPU 192
APIO_procNo = 1857
APIO_procNo = 1216
writeThread 1216 on CPU 192
APIO_procNo = 1729
writeThread 1729 on CPU 193
APIO_procNo = 1344
APIO_procNo = 2625
APIO_procNo = 1472
writeThread 1472 on CPU 192
APIO_procNo = 2752
APIO_procNo = 2240
writeThread 2240 on CPU 192
APIO_procNo = 2496
writeThread 2496 on CPU 192
APIO_procNo = 2881
writeThread 2881 on CPU 193
APIO_procNo = 1600
APIO_procNo = 3392
writeThread 3392 on CPU 192
APIO_procNo = 3522
writeThread 3522 on CPU 194
APIO_procNo = 3776
writeThread 3776 on CPU 192
APIO_procNo = 1984
writeThread 1984 on CPU 192
APIO_procNo = 3008
writeThread 3008 on CPU 192
APIO_procNo = 2112
writeThread 2112 on CPU 192
APIO_procNo = 3136
APIO_procNo = 3264
writeThread 3264 on CPU 192
APIO_procNo = 3904
writeThread 3904 on CPU 192
APIO_procNo = 3648
writeThread 3648 on CPU 192
APIO_procNo = 4033
writeThread 4033 on CPU 193
APIO_procNo = 192
writeThread 192 on CPU 192
APIO_procNo = 705
writeThread 705 on CPU 193
APIO_procNo = 449
APIO_procNo = 321
APIO_procNo = 833
writeThread 833 on CPU 193
APIO_procNo = 1089
writeThread 1089 on CPU 193
APIO_procNo = 2369
writeThread 2369 on CPU 193
APIO_procNo = 577
APIO_procNo = 961
writeThread 961 on CPU 193
APIO_procNo = 1858
APIO_procNo = 1217
writeThread 1217 on CPU 193
APIO_procNo = 1730
writeThread 1730 on CPU 194
APIO_procNo = 1345
APIO_procNo = 2626
APIO_procNo = 1473
writeThread 1473 on CPU 193
APIO_procNo = 2753
APIO_procNo = 2241
writeThread 2241 on CPU 193
APIO_procNo = 2497
writeThread 2497 on CPU 193
APIO_procNo = 2882
writeThread 2882 on CPU 194
APIO_procNo = 1601
APIO_procNo = 3393
writeThread 3393 on CPU 193
APIO_procNo = 3523
writeThread 3523 on CPU 195
APIO_procNo = 3777
writeThread 3777 on CPU 193
APIO_procNo = 1985
writeThread 1985 on CPU 193
APIO_procNo = 3009
writeThread 3009 on CPU 193
APIO_procNo = 2113
writeThread 2113 on CPU 193
APIO_procNo = 3137
APIO_procNo = 3265
APIO_procNo = 3905
writeThread 3905 on CPU 193
APIO_procNo = 3649
writeThread 3649 on CPU 193
APIO_procNo = 4034
writeThread 4034 on CPU 194
APIO_procNo = 193
writeThread 193 on CPU 193
APIO_procNo = 706
writeThread 706 on CPU 194
APIO_procNo = 450
APIO_procNo = 322
APIO_procNo = 834
writeThread 834 on CPU 194
APIO_procNo = 1090
writeThread 1090 on CPU 194
APIO_procNo = 2370
writeThread 2370 on CPU 194
APIO_procNo = 578
APIO_procNo = 962
writeThread 962 on CPU 194
APIO_procNo = 1859
APIO_procNo = 1218
writeThread 1218 on CPU 194
APIO_procNo = 1731
writeThread 1731 on CPU 195
APIO_procNo = 1346
APIO_procNo = 2627
APIO_procNo = 1474
writeThread 1474 on CPU 194
APIO_procNo = 2754
APIO_procNo = 2242
writeThread 2242 on CPU 194
APIO_procNo = 2498
writeThread 2498 on CPU 194
APIO_procNo = 2883
writeThread 2883 on CPU 195
APIO_procNo = 1602
APIO_procNo = 3394
writeThread 3394 on CPU 194
APIO_procNo = 3524
writeThread 3524 on CPU 196
APIO_procNo = 3778
writeThread 3778 on CPU 194
APIO_procNo = 1986
writeThread 1986 on CPU 194
APIO_procNo = 3010
writeThread 3010 on CPU 194
APIO_procNo = 2114
writeThread 2114 on CPU 194
APIO_procNo = 3138
APIO_procNo = 3266
writeThread 3266 on CPU 194
APIO_procNo = 3906
writeThread 3906 on CPU 194
APIO_procNo = 3650
APIO_procNo = 4035
writeThread 4035 on CPU 195
APIO_procNo = 194
writeThread 194 on CPU 194
APIO_procNo = 707
writeThread 707 on CPU 195
APIO_procNo = 451
APIO_procNo = 323
APIO_procNo = 835
writeThread 835 on CPU 195
APIO_procNo = 1091
writeThread 1091 on CPU 195
APIO_procNo = 2371
writeThread 2371 on CPU 195
APIO_procNo = 579
APIO_procNo = 963
writeThread 963 on CPU 195
APIO_procNo = 1860
writeThread 1860 on CPU 196
APIO_procNo = 1219
writeThread 1219 on CPU 195
APIO_procNo = 1732
writeThread 1732 on CPU 196
APIO_procNo = 1347
APIO_procNo = 2628
APIO_procNo = 1475
writeThread 1475 on CPU 195
APIO_procNo = 2755
APIO_procNo = 2243
writeThread 2243 on CPU 195
APIO_procNo = 2499
writeThread 2499 on CPU 195
APIO_procNo = 2884
writeThread 2884 on CPU 196
APIO_procNo = 1603
APIO_procNo = 3395
writeThread 3395 on CPU 195
APIO_procNo = 3525
writeThread 3525 on CPU 197
APIO_procNo = 3779
writeThread 3779 on CPU 195
APIO_procNo = 1987
writeThread 1987 on CPU 195
APIO_procNo = 3011
writeThread 3011 on CPU 195
APIO_procNo = 2115
writeThread 2115 on CPU 195
APIO_procNo = 3139
APIO_procNo = 3267
writeThread 3267 on CPU 195
APIO_procNo = 3907
writeThread 3907 on CPU 195
APIO_procNo = 3651
writeThread 3651 on CPU 195
APIO_procNo = 4036
writeThread 4036 on CPU 196
APIO_procNo = 195
writeThread 195 on CPU 195
APIO_procNo = 708
writeThread 708 on CPU 196
APIO_procNo = 452
APIO_procNo = 324
APIO_procNo = 836
writeThread 836 on CPU 196
APIO_procNo = 1092
writeThread 1092 on CPU 196
APIO_procNo = 2372
writeThread 2372 on CPU 196
APIO_procNo = 580
APIO_procNo = 964
writeThread 964 on CPU 196
APIO_procNo = 1861
writeThread 1861 on CPU 197
APIO_procNo = 1220
APIO_procNo = 1733
writeThread 1733 on CPU 197
APIO_procNo = 1348
writeThread 1348 on CPU 196
APIO_procNo = 2629
APIO_procNo = 1476
writeThread 1476 on CPU 196
APIO_procNo = 2756
APIO_procNo = 2244
writeThread 2244 on CPU 196
APIO_procNo = 2500
writeThread 2500 on CPU 196
APIO_procNo = 2885
writeThread 2885 on CPU 197
APIO_procNo = 1604
APIO_procNo = 3396
writeThread 3396 on CPU 196
APIO_procNo = 3526
writeThread 3526 on CPU 198
APIO_procNo = 3780
writeThread 3780 on CPU 196
APIO_procNo = 1988
writeThread 1988 on CPU 196
APIO_procNo = 3012
APIO_procNo = 2116
APIO_procNo = 3140
APIO_procNo = 3268
[...]
time step continuity errors : sum local = 1.624104967913053e-16, global = 1.856778051799161e-17, cumulative = -2.111373312789966e-09
DILUPBiCG:  Solving for k, Initial residual = 0.009033130891869072, Final residual = 3.402865874251193e-13, No Iterations 6
ExecutionTime = 1529.77 s  ClockTime = 4775 s

APIO_IO_STEP = 43.58440006300088
Courant Number mean: 5.456405580826098e-07 max: 0.2001727414179721
deltaT = 2.740085638189875e-06
Time = 0.000170549

PIMPLE: iteration 1
diagonal:  Solving for rho, Initial residual = 0, Final residual = 0, No Iterations 0
DILUPBiCG:  Solving for Ux, Initial residual = 0.01634274545848596, Final residual = 4.991856023025249e-13, No Iterations 5
DILUPBiCG:  Solving for Uy, Initial residual = 0.01634284466274938, Final residual = 5.295615302116842e-13, No Iterations 5
DILUPBiCG:  Solving for Uz, Initial residual = 0.008070447126787944, Final residual = 2.463869243132328e-13, No Iterations 5
DILUPBiCG:  Solving for e, Initial residual = 0.01129028062152516, Final residual = 1.06761138807732e-14, No Iterations 5
DILUPBiCG:  Solving for p, Initial residual = 0.01468137245177487, Final residual = 3.549786567605957e-05, No Iterations 1
pEqnloop: 0
diagonal:  Solving for rho, Initial residual = 0, Final residual = 0, No Iterations 0
time step continuity errors : sum local = 3.63636747566489e-10, global = -1.018739704837298e-10, cumulative = -2.213247283273696e-09
DILUPBiCG:  Solving for p, Initial residual = 0.0001219246091411298, Final residual = 6.133520081860679e-14, No Iterations 5
pEqnloop: 1
diagonal:  Solving for rho, Initial residual = 0, Final residual = 0, No Iterations 0
time step continuity errors : sum local = 1.634186865143875e-16, global = -2.338960269564488e-17, cumulative = -2.213247306663298e-09
DILUPBiCG:  Solving for k, Initial residual = 0.009100687488371379, Final residual = 5.208247074353574e-14, No Iterations 6
ExecutionTime = 1559.93 s  ClockTime = 4868 s

APIO_IO_STEP = 42.77250303399978
Courant Number mean: 5.584571381842905e-07 max: 0.1996720293315007
deltaT = 2.744586357301653e-06
Time = 0.000173294

PIMPLE: iteration 1
diagonal:  Solving for rho, Initial residual = 0, Final residual = 0, No Iterations 0
DILUPBiCG:  Solving for Ux, Initial residual = 0.01619978962265767, Final residual = 4.169604900815357e-13, No Iterations 5
DILUPBiCG:  Solving for Uy, Initial residual = 0.01619983848342178, Final residual = 4.279419526357031e-13, No Iterations 5
DILUPBiCG:  Solving for Uz, Initial residual = 0.008006499457827406, Final residual = 2.241867735863288e-13, No Iterations 5
DILUPBiCG:  Solving for e, Initial residual = 0.01123183788750825, Final residual = 9.391718135689787e-15, No Iterations 5
DILUPBiCG:  Solving for p, Initial residual = 0.01462741173235637, Final residual = 3.550880239958483e-05, No Iterations 1
pEqnloop: 0
diagonal:  Solving for rho, Initial residual = 0, Final residual = 0, No Iterations 0
time step continuity errors : sum local = 3.702060067737954e-10, global = -1.072055972123473e-10, cumulative = -2.320452903875645e-09
DILUPBiCG:  Solving for p, Initial residual = 0.0001061170460565789, Final residual = 1.133922408216407e-14, No Iterations 5
pEqnloop: 1
diagonal:  Solving for rho, Initial residual = 0, Final residual = 0, No Iterations 0
time step continuity errors : sum local = 1.767302809817748e-16, global = 8.876041223182071e-17, cumulative = -2.320452815115233e-09
DILUPBiCG:  Solving for k, Initial residual = 0.009157440601288775, Final residual = 8.718389033180489e-15, No Iterations 6
ExecutionTime = 1676.42 s  ClockTime = 5033 s

APIO_IO_STEP = 32.13193155300178
Courant Number mean: 5.729474760990327e-07 max: 0.1995712073840755
deltaT = 2.750483291930657e-06
Time = 0.000176044

PIMPLE: iteration 1
diagonal:  Solving for rho, Initial residual = 0, Final residual = 0, No Iterations 0
DILUPBiCG:  Solving for Ux, Initial residual = 0.01607086055695187, Final residual = 3.642900858811648e-13, No Iterations 5
DILUPBiCG:  Solving for Uy, Initial residual = 0.01607099391973304, Final residual = 3.629653557481484e-13, No Iterations 5
DILUPBiCG:  Solving for Uz, Initial residual = 0.007959949158042061, Final residual = 2.093886569494002e-13, No Iterations 5
DILUPBiCG:  Solving for e, Initial residual = 0.01116818163785102, Final residual = 8.509017825556768e-15, No Iterations 5
DILUPBiCG:  Solving for p, Initial residual = 0.01457476234941137, Final residual = 3.616004596449189e-05, No Iterations 1
pEqnloop: 0
diagonal:  Solving for rho, Initial residual = 0, Final residual = 0, No Iterations 0
time step continuity errors : sum local = 3.836167297974249e-10, global = -1.198693702506459e-10, cumulative = -2.440322185365879e-09
DILUPBiCG:  Solving for p, Initial residual = 0.000111091806209268, Final residual = 2.678117450002709e-14, No Iterations 5
pEqnloop: 1
diagonal:  Solving for rho, Initial residual = 0, Final residual = 0, No Iterations 0
time step continuity errors : sum local = 1.727552847241737e-16, global = -7.467692530929711e-17, cumulative = -2.440322260042804e-09
DILUPBiCG:  Solving for k, Initial residual = 0.009185013754381081, Final residual = 5.551708797983004e-14, No Iterations 5
ExecutionTime = 1722.58 s  ClockTime = 5118 s

APIO_IO_STEP = 22.78194255899962
Courant Number mean: 5.879617265018864e-07 max: 0.1996196040854736
deltaT = 2.755724623873048e-06
Time = 0.0001788

PIMPLE: iteration 1
diagonal:  Solving for rho, Initial residual = 0, Final residual = 0, No Iterations 0
DILUPBiCG:  Solving for Ux, Initial residual = 0.01592335584128491, Final residual = 3.279846824576374e-13, No Iterations 5
DILUPBiCG:  Solving for Uy, Initial residual = 0.01592355948098274, Final residual = 3.179229745081657e-13, No Iterations 5
DILUPBiCG:  Solving for Uz, Initial residual = 0.007903100746071198, Final residual = 1.974758103651067e-13, No Iterations 5
DILUPBiCG:  Solving for e, Initial residual = 0.01116872971424956, Final residual = 7.047780774318446e-15, No Iterations 5
DILUPBiCG:  Solving for p, Initial residual = 0.01457839087841447, Final residual = 3.575073574305591e-05, No Iterations 1
pEqnloop: 0
diagonal:  Solving for rho, Initial residual = 0, Final residual = 0, No Iterations 0
time step continuity errors : sum local = 3.858584642093466e-10, global = -1.177834749192348e-10, cumulative = -2.558105734962039e-09
DILUPBiCG:  Solving for p, Initial residual = 0.0001054896679159658, Final residual = 9.609439260995791e-13, No Iterations 4
pEqnloop: 1
diagonal:  Solving for rho, Initial residual = 0, Final residual = 0, No Iterations 0
time step continuity errors : sum local = 1.951889857099631e-16, global = 1.10790885550501e-16, cumulative = -2.558105624171154e-09
DILUPBiCG:  Solving for k, Initial residual = 0.009187668197708988, Final residual = 3.22607163754444e-15, No Iterations 6
ExecutionTime = 1742.63 s  ClockTime = 5200 s

APIO_IO_STEP = 46.35448916500172
Courant Number mean: 6.029365891238456e-07 max: 0.1994616261228662
deltaT = 2.763162696944563e-06
Time = 0.000181563

PIMPLE: iteration 1
diagonal:  Solving for rho, Initial residual = 0, Final residual = 0, No Iterations 0
DILUPBiCG:  Solving for Ux, Initial residual = 0.01577882674543675, Final residual = 3.088734673171274e-13, No Iterations 5
DILUPBiCG:  Solving for Uy, Initial residual = 0.01577900739895568, Final residual = 2.922281322470983e-13, No Iterations 5
DILUPBiCG:  Solving for Uz, Initial residual = 0.007825005747801306, Final residual = 1.90251291866213e-13, No Iterations 5
DILUPBiCG:  Solving for e, Initial residual = 0.01123983714600314, Final residual = 9.700045967134724e-13, No Iterations 4
DILUPBiCG:  Solving for p, Initial residual = 0.01458533433708664, Final residual = 3.54338325723511e-05, No Iterations 1
pEqnloop: 0
diagonal:  Solving for rho, Initial residual = 0, Final residual = 0, No Iterations 0
time step continuity errors : sum local = 3.889892372867451e-10, global = -1.165489209066559e-10, cumulative = -2.67465454507781e-09
DILUPBiCG:  Solving for p, Initial residual = 0.0001101911809998266, Final residual = 3.303015921171982e-14, No Iterations 5
pEqnloop: 1
diagonal:  Solving for rho, Initial residual = 0, Final residual = 0, No Iterations 0
time step continuity errors : sum local = 1.638220653932136e-16, global = 2.831132208152917e-17, cumulative = -2.674654516766487e-09
DILUPBiCG:  Solving for k, Initial residual = 0.009175751980257883, Final residual = 7.357263605885436e-15, No Iterations 5
ExecutionTime = 1772.99 s  ClockTime = 5288 s

APIO_IO_STEP = 39.58656598500147
Courant Number mean: 6.185630488906307e-07 max: 0.1990571739688667
deltaT = 2.776250302213894e-06
Time = 0.000184339

PIMPLE: iteration 1
diagonal:  Solving for rho, Initial residual = 0, Final residual = 0, No Iterations 0
DILUPBiCG:  Solving for Ux, Initial residual = 0.01565880458451425, Final residual = 3.052482769941398e-13, No Iterations 5
DILUPBiCG:  Solving for Uy, Initial residual = 0.01565891659617415, Final residual = 2.81921688965482e-13, No Iterations 5
DILUPBiCG:  Solving for Uz, Initial residual = 0.00778685564785211, Final residual = 1.88117860126568e-13, No Iterations 5
DILUPBiCG:  Solving for e, Initial residual = 0.01121532134939412, Final residual = 4.594565126969585e-15, No Iterations 5
DILUPBiCG:  Solving for p, Initial residual = 0.01451854428258779, Final residual = 3.519597864549939e-05, No Iterations 1
pEqnloop: 0
diagonal:  Solving for rho, Initial residual = 0, Final residual = 0, No Iterations 0
time step continuity errors : sum local = 3.929187850067628e-10, global = -1.187838211417713e-10, cumulative = -2.793438337908259e-09
DILUPBiCG:  Solving for p, Initial residual = 0.0001082077862831059, Final residual = 1.140964481075294e-13, No Iterations 5
pEqnloop: 1
diagonal:  Solving for rho, Initial residual = 0, Final residual = 0, No Iterations 0
time step continuity errors : sum local = 1.644867079575478e-16, global = 3.036383690241345e-17, cumulative = -2.793438307544422e-09
DILUPBiCG:  Solving for k, Initial residual = 0.009160154130399747, Final residual = 8.56529282337443e-15, No Iterations 5
ExecutionTime = 1876.19 s  ClockTime = 5445 s

APIO_IO_STEP = 35.90365993500291
Courant Number mean: 6.357627422638267e-07 max: 0.1984543101377704
deltaT = 2.797873525938096e-06
Time = 0.000187137

PIMPLE: iteration 1
diagonal:  Solving for rho, Initial residual = 0, Final residual = 0, No Iterations 0
DILUPBiCG:  Solving for Ux, Initial residual = 0.01562066411887797, Final residual = 3.119467919598249e-13, No Iterations 5
DILUPBiCG:  Solving for Uy, Initial residual = 0.0156207565602503, Final residual = 2.835406201928572e-13, No Iterations 5
DILUPBiCG:  Solving for Uz, Initial residual = 0.007789888058686482, Final residual = 1.914842804607891e-13, No Iterations 5
DILUPBiCG:  Solving for e, Initial residual = 0.01124699570838486, Final residual = 3.068069790867551e-14, No Iterations 5
DILUPBiCG:  Solving for p, Initial residual = 0.01462868026215342, Final residual = 3.50929622489679e-05, No Iterations 1
pEqnloop: 0
diagonal:  Solving for rho, Initial residual = 0, Final residual = 0, No Iterations 0
time step continuity errors : sum local = 3.983491412551597e-10, global = -1.202802644311247e-10, cumulative = -2.913718571975546e-09
DILUPBiCG:  Solving for p, Initial residual = 0.0001060471777075478, Final residual = 1.458512665306795e-14, No Iterations 5
pEqnloop: 1
diagonal:  Solving for rho, Initial residual = 0, Final residual = 0, No Iterations 0
time step continuity errors : sum local = 1.645420179147248e-16, global = 4.3634045548114e-17, cumulative = -2.9137185283415e-09
DILUPBiCG:  Solving for k, Initial residual = 0.009179249265590871, Final residual = 1.35021577177469e-14, No Iterations 5
ExecutionTime = 1901.14 s  ClockTime = 5522 s

APIO_IO_STEP = 33.5153334459992
Courant Number mean: 6.553122605713899e-07 max: 0.2007212993458832
deltaT = 2.787819264877099e-06
Time = 0.000189925

PIMPLE: iteration 1
diagonal:  Solving for rho, Initial residual = 0, Final residual = 0, No Iterations 0
DILUPBiCG:  Solving for Ux, Initial residual = 0.01544998797772737, Final residual = 3.000538260044551e-13, No Iterations 5
DILUPBiCG:  Solving for Uy, Initial residual = 0.0154499880967, Final residual = 2.712860568329114e-13, No Iterations 5
DILUPBiCG:  Solving for Uz, Initial residual = 0.007699526627434293, Final residual = 1.856570162745619e-13, No Iterations 5
DILUPBiCG:  Solving for e, Initial residual = 0.01123385310726734, Final residual = 2.9461750336869e-14, No Iterations 5
DILUPBiCG:  Solving for p, Initial residual = 0.01452822359489271, Final residual = 3.35974260769496e-05, No Iterations 1
pEqnloop: 0
diagonal:  Solving for rho, Initial residual = 0, Final residual = 0, No Iterations 0
time step continuity errors : sum local = 3.877170892365133e-10, global = -1.100775001210679e-10, cumulative = -3.023796028462568e-09
DILUPBiCG:  Solving for p, Initial residual = 0.0001085624334459696, Final residual = 1.315750804341513e-14, No Iterations 5
pEqnloop: 1
diagonal:  Solving for rho, Initial residual = 0, Final residual = 0, No Iterations 0
time step continuity errors : sum local = 1.623081753947363e-16, global = -2.230182118559805e-18, cumulative = -3.02379603069275e-09
DILUPBiCG:  Solving for k, Initial residual = 0.009120735508050941, Final residual = 4.592511868930528e-14, No Iterations 5
ExecutionTime = 1926.87 s  ClockTime = 5597 s

APIO_IO_STEP = 32.6124620770006
Courant Number mean: 6.675356876064526e-07 max: 0.2018914498506973
deltaT = 2.761701168562346e-06
Time = 0.000192687

PIMPLE: iteration 1
diagonal:  Solving for rho, Initial residual = 0, Final residual = 0, No Iterations 0
DILUPBiCG:  Solving for Ux, Initial residual = 0.01520635298943431, Final residual = 2.745164519121589e-13, No Iterations 5
DILUPBiCG:  Solving for Uy, Initial residual = 0.01520623520226487, Final residual = 2.469927336367765e-13, No Iterations 5
DILUPBiCG:  Solving for Uz, Initial residual = 0.007563652679279649, Final residual = 1.734581560490615e-13, No Iterations 5
DILUPBiCG:  Solving for e, Initial residual = 0.01109723998355755, Final residual = 2.655069760484428e-14, No Iterations 5
DILUPBiCG:  Solving for p, Initial residual = 0.01439436910967739, Final residual = 3.285561043611298e-05, No Iterations 1
pEqnloop: 0
diagonal:  Solving for rho, Initial residual = 0, Final residual = 0, No Iterations 0
time step continuity errors : sum local = 3.853400828428211e-10, global = -1.100409220411679e-10, cumulative = -3.133836952733918e-09
DILUPBiCG:  Solving for p, Initial residual = 0.0001007434241005857, Final residual = 2.38975795379651e-14, No Iterations 5
pEqnloop: 1
diagonal:  Solving for rho, Initial residual = 0, Final residual = 0, No Iterations 0
time step continuity errors : sum local = 1.689457144979307e-16, global = -5.706665044207384e-17, cumulative = -3.133837009800569e-09
DILUPBiCG:  Solving for k, Initial residual = 0.009041274810538453, Final residual = 3.38298930508113e-14, No Iterations 5
ExecutionTime = 1958.67 s  ClockTime = 5684 s

APIO_IO_STEP = 41.24223301499933
Courant Number mean: 6.754440863961585e-07 max: 0.2016371769747301
deltaT = 2.739277756213021e-06
Time = 0.000195426

PIMPLE: iteration 1
diagonal:  Solving for rho, Initial residual = 0, Final residual = 0, No Iterations 0
DILUPBiCG:  Solving for Ux, Initial residual = 0.01496739731822814, Final residual = 2.500453683638981e-13, No Iterations 5
DILUPBiCG:  Solving for Uy, Initial residual = 0.01496721052533851, Final residual = 2.243905694338281e-13, No Iterations 5
DILUPBiCG:  Solving for Uz, Initial residual = 0.007420926573371756, Final residual = 1.612655953798231e-13, No Iterations 5
DILUPBiCG:  Solving for e, Initial residual = 0.01099079711593624, Final residual = 2.422414576109907e-14, No Iterations 5
DILUPBiCG:  Solving for p, Initial residual = 0.01416062485107298, Final residual = 3.172939343300356e-05, No Iterations 1
pEqnloop: 0
diagonal:  Solving for rho, Initial residual = 0, Final residual = 0, No Iterations 0
time step continuity errors : sum local = 3.781273800106862e-10, global = -1.095462531858921e-10, cumulative = -3.243383262986461e-09
DILUPBiCG:  Solving for p, Initial residual = 0.0001046962914742062, Final residual = 1.622521434425854e-14, No Iterations 5
pEqnloop: 1
diagonal:  Solving for rho, Initial residual = 0, Final residual = 0, No Iterations 0
time step continuity errors : sum local = 1.620100995925485e-16, global = -2.388559773414619e-17, cumulative = -3.243383286872059e-09
DILUPBiCG:  Solving for k, Initial residual = 0.008986141324056488, Final residual = 1.663247717870326e-14, No Iterations 5
ExecutionTime = 1982.79 s  ClockTime = 5774 s

APIO_IO_STEP = 39.17292339099913
Courant Number mean: 6.838220783257357e-07 max: 0.2007910230946356
deltaT = 2.728486277916865e-06
Time = 0.000198155

PIMPLE: iteration 1
diagonal:  Solving for rho, Initial residual = 0, Final residual = 0, No Iterations 0
DILUPBiCG:  Solving for Ux, Initial residual = 0.01477840802273689, Final residual = 2.352568770399957e-13, No Iterations 5
DILUPBiCG:  Solving for Uy, Initial residual = 0.01477824241374243, Final residual = 2.119740074836124e-13, No Iterations 5
DILUPBiCG:  Solving for Uz, Initial residual = 0.00732410723528594, Final residual = 1.515366173168447e-13, No Iterations 5
DILUPBiCG:  Solving for e, Initial residual = 0.0108749918274957, Final residual = 5.593933448246167e-14, No Iterations 5
DILUPBiCG:  Solving for p, Initial residual = 0.01401838598938493, Final residual = 3.132718350788407e-05, No Iterations 1
pEqnloop: 0
diagonal:  Solving for rho, Initial residual = 0, Final residual = 0, No Iterations 0
time step continuity errors : sum local = 3.793294642876433e-10, global = -1.122977714755541e-10, cumulative = -3.355681058347613e-09
DILUPBiCG:  Solving for p, Initial residual = 9.720107384097438e-05, Final residual = 1.601882828803461e-13, No Iterations 5
pEqnloop: 1
diagonal:  Solving for rho, Initial residual = 0, Final residual = 0, No Iterations 0
time step continuity errors : sum local = 1.763547711345626e-16, global = 8.950553123863181e-17, cumulative = -3.355680968842082e-09
DILUPBiCG:  Solving for k, Initial residual = 0.00896969303396662, Final residual = 7.93906573603939e-14, No Iterations 5
ExecutionTime = 2016.94 s  ClockTime = 5864 s

APIO_IO_STEP = 39.14108527899953
Courant Number mean: 6.950626146274871e-07 max: 0.2003263594224859
deltaT = 2.724041195360124e-06
Time = 0.000200879

PIMPLE: iteration 1
diagonal:  Solving for rho, Initial residual = 0, Final residual = 0, No Iterations 0
DILUPBiCG:  Solving for Ux, Initial residual = 0.01464931798109479, Final residual = 2.294791946930243e-13, No Iterations 5
DILUPBiCG:  Solving for Uy, Initial residual = 0.01464914358334734, Final residual = 2.095640186954329e-13, No Iterations 5
DILUPBiCG:  Solving for Uz, Initial residual = 0.007272177768318493, Final residual = 1.43412586222944e-13, No Iterations 5
DILUPBiCG:  Solving for e, Initial residual = 0.01085279624883392, Final residual = 1.584231731876851e-13, No Iterations 5
DILUPBiCG:  Solving for p, Initial residual = 0.0139526394589364, Final residual = 3.091483854322411e-05, No Iterations 1
pEqnloop: 0
diagonal:  Solving for rho, Initial residual = 0, Final residual = 0, No Iterations 0
time step continuity errors : sum local = 3.803169799177903e-10, global = -1.140559001962853e-10, cumulative = -3.469736869038367e-09
DILUPBiCG:  Solving for p, Initial residual = 9.662327705575978e-05, Final residual = 1.057550695700766e-14, No Iterations 5
pEqnloop: 1
diagonal:  Solving for rho, Initial residual = 0, Final residual = 0, No Iterations 0
time step continuity errors : sum local = 1.679333461720965e-16, global = 6.66101214396765e-17, cumulative = -3.469736802428246e-09
DILUPBiCG:  Solving for k, Initial residual = 0.008981135389614476, Final residual = 6.961074590728963e-14, No Iterations 5
ExecutionTime = 2045.46 s  ClockTime = 5952 s

APIO_IO_STEP = 46.13253389799956
Terminating ...
End

APIO_IO_TIME = 1981.4671917019
Finalising parallel run
