/*---------------------------------------------------------------------------*\
| =========                 |                                                 |
| \\      /  F ield         | OpenFOAM: The Open Source CFD Toolbox           |
|  \\    /   O peration     | Version:  v1912                                 |
|   \\  /    A nd           | Website:  www.openfoam.com                      |
|    \\/     M anipulation  |                                                 |
\*---------------------------------------------------------------------------*/
Build  : _f3950763fe-20191219 OPENFOAM=1912
Arch   : "LSB;label=32;scalar=64"
Exec   : rhoPimpleFoam_METRICS -parallel
Date   : Oct 28 2020
Time   : 16:46:34
Host   : r34c3t5n1
PID    : 174857
I/O    : uncollated
Case   : /lustre/cray/ws9/2/ws/hpcmcast-ashee2/HAWK/apio_256M/4096
nProcs : 4096
Hosts  :
(
    (r34c3t5n1 128)
    (r34c3t5n2 128)
    (r34c3t5n3 128)
    (r34c3t5n4 128)
    (r34c3t6n1 128)
    (r34c3t6n2 128)
    (r34c3t6n3 128)
    (r34c3t6n4 128)
    (r34c3t7n1 128)
    (r34c3t7n2 128)
    (r34c3t7n3 128)
    (r34c3t7n4 128)
    (r34c3t8n1 128)
    (r34c3t8n2 128)
    (r34c3t8n3 128)
    (r34c3t8n4 128)
    (r34c4t1n1 128)
    (r34c4t1n2 128)
    (r34c4t1n4 128)
    (r34c4t2n1 128)
    (r34c4t2n2 128)
    (r34c4t2n3 128)
    (r34c4t2n4 128)
    (r34c4t3n1 128)
    (r34c4t3n2 128)
    (r34c4t3n3 128)
    (r34c4t3n4 128)
    (r34c4t4n1 128)
    (r34c4t4n2 128)
    (r34c4t4n3 128)
    (r34c4t4n4 128)
    (r34c4t5n1 128)
)
Pstream initialized with:
    floatTransfer      : 0
    nProcsSimpleSum    : 0
    commsType          : nonBlocking
    polling iterations : 0
trapFpe: Floating point exception trapping enabled (FOAM_SIGFPE).
fileModificationChecking : Monitoring run-time modified files using timeStampMaster (fileModificationSkew 10)
allowSystemOperations : Allowing user-supplied system call operations

// * * * * * * * * * * * * * * * * * * * * * * * * * * * * * * * * * * * * * //
Create time

Create mesh for time = 0


PIMPLE: Operating solver in PISO mode

Reading thermophysical properties

Selecting thermodynamics package 
{
    type            hePsiThermo;
    mixture         pureMixture;
    transport       const;
    thermo          eConst;
    equationOfState perfectGas;
    specie          specie;
    energy          sensibleInternalEnergy;
}

Reading field U

Reading/calculating face flux field phi

--> FOAM Warning : 
    From function Foam::pressureControl::pressureControl(const volScalarField&, const volScalarField&, const Foam::dictionary&, bool)
    in file cfdTools/general/pressureControl/pressureControl.C at line 123
    Reading "/lustre/cray/ws9/2/ws/hpcmcast-ashee2/HAWK/apio_256M/4096/system/fvSolution.PIMPLE"
    'rhoMax' specified rather than 'pMax' or 'pMaxFactor'
    This is supported for backward-compatibility but 'pMax' or 'pMaxFactor' are more reliable.
--> FOAM Warning : 
    From function Foam::pressureControl::pressureControl(const volScalarField&, const volScalarField&, const Foam::dictionary&, bool)
    in file cfdTools/general/pressureControl/pressureControl.C at line 178
    Reading "/lustre/cray/ws9/2/ws/hpcmcast-ashee2/HAWK/apio_256M/4096/system/fvSolution.PIMPLE"
    'rhoMin' specified rather than 'pMin' or 'pMinFactor'
    This is supported for backward-compatibility but 'pMin' or 'pMinFactor' are more reliable.
pressureControl
    pMax 1726187.557059955
    pMin 4747.015781914877

Creating turbulence model

Selecting turbulence model type LES
Selecting LES turbulence model kEqn
Selecting LES delta type cubeRootVol
LES
{
    LESModel        kEqn;
    turbulence      on;
    printCoeffs     on;
    delta           cubeRootVol;
    cubeRootVolCoeffs
    {
        deltaCoeff      1;
    }
    PrandtlCoeffs
    {
        delta           cubeRootVol;
        cubeRootVolCoeffs
        {
            deltaCoeff      1;
        }
        smoothCoeffs
        {
            delta           cubeRootVol;
            cubeRootVolCoeffs
            {
                deltaCoeff      1;
            }
            maxDeltaRatio   1.1;
        }
        Cdelta          0.158;
    }
    vanDriestCoeffs
    {
        delta           cubeRootVol;
        cubeRootVolCoeffs
        {
            deltaCoeff      1;
        }
        smoothCoeffs
        {
            delta           cubeRootVol;
            cubeRootVolCoeffs
            {
                deltaCoeff      1;
            }
            maxDeltaRatio   1.1;
        }
        Aplus           26;
        Cdelta          0.158;
    }
    smoothCoeffs
    {
        delta           cubeRootVol;
        cubeRootVolCoeffs
        {
            deltaCoeff      1;
        }
        maxDeltaRatio   1.1;
    }
    Ce              1.048;
    Ck              0.094;
}

Creating field dpdt

Creating field kinetic energy K

No MRF models present

procNo = 36
procNo = 37
procNo = 38
procNo = 39
procNo = 40
procNo = 41
procNo = 42
procNo = 43
procNo = 44
procNo = 45
procNo = 46
procNo = 47
procNo = 48
procNo = 49
procNo = 50
procNo = 51
procNo = 52
procNo = 53
procNo = 54
procNo = 55
procNo = 56
procNo = 57
procNo = 58
procNo = 59
procNo = 60
procNo = 61
procNo = 62
procNo = 63
procNo = 64
procNo = 65
procNo = 66
procNo = 67
procNo = 68
procNo = 69
procNo = 70
procNo = 71
procNo = 72
procNo = 73
procNo = 74
procNo = 75
procNo = 76
procNo = 77
procNo = 78
procNo = 79
procNo = 80
procNo = 81
procNo = 82
procNo = 83
procNo = 84
procNo = 85
procNo = 86
procNo = 87
procNo = 88
procNo = 89
procNo = 90
procNo = 91
procNo = 92
procNo = 93
procNo = 94
procNo = 95
procNo = 96
procNo = 97
procNo = 98
procNo = 99
procNo = 100
procNo = 101
procNo = 102
procNo = 103
procNo = 104
procNo = 105
procNo = 106
procNo = 107
procNo = 108
procNo = 109
procNo = 110
procNo = 111
procNo = 112
procNo = 113
procNo = 114
procNo = 115
procNo = 116
procNo = 117
procNo = 118
procNo = 119
procNo = 120
procNo = 121
procNo = 122
procNo = 123
procNo = 124
procNo = 125
procNo = 126
procNo = 127
No finite volume options present
procNo = 0
masterNo = 0
procNo = 1
procNo = 2
procNo = 3
procNo = 4
procNo = 5
procNo = 6
procNo = 7
procNo = 8
procNo = 9
procNo = 10
procNo = 11
procNo = 12
procNo = 13
procNo = 14
procNo = 15
procNo = 16
procNo = 17
procNo = 18
procNo = 19
procNo = 20
procNo = 21
procNo = 22
procNo = 23
procNo = 24
procNo = 25
procNo = 26
procNo = 27
procNo = 28
procNo = 29
procNo = 30
procNo = 31
procNo = 32
procNo = 33
procNo = 34
procNo = 35
procNo = 384
procNo = 512
procNo = 256
procNo = 2048
procNo = 1664
procNo = 640
procNo = 768
procNo = 1920
procNo = 2304
procNo = 1280
procNo = 3584
procNo = 2688
procNo = 3200
procNo = 1792
procNo = 3328
procNo = 2176
procNo = 2560
procNo = 3968
procNo = 896
procNo = 128
procNo = 385
procNo = 513
procNo = 1152
procNo = 257
procNo = 2049
procNo = 1408
procNo = 1024
procNo = 1665
procNo = 641
procNo = 769
procNo = 1921
procNo = 2305
procNo = 3072
procNo = 1281
procNo = 1536
procNo = 2816
procNo = 3585
procNo = 2689
procNo = 2432
procNo = 3201
procNo = 3460
procNo = 1793
procNo = 3329
procNo = 3840
procNo = 2177
procNo = 2561
procNo = 2944
procNo = 3713
procNo = 3969
procNo = 897
procNo = 129
procNo = 386
procNo = 514
procNo = 1153
procNo = 258
procNo = 2050
procNo = 1409
procNo = 1025
procNo = 1666
procNo = 642
procNo = 770
procNo = 1922
procNo = 2306
procNo = 3073
procNo = 1282
procNo = 1537
procNo = 2817
procNo = 3586
procNo = 2690
procNo = 2433
procNo = 3202
procNo = 3461
procNo = 1794
procNo = 3330
procNo = 3841
procNo = 2178
procNo = 2562
procNo = 2945
procNo = 3714
procNo = 3970
procNo = 898
procNo = 130
procNo = 387
procNo = 515
procNo = 1154
procNo = 259
procNo = 2051
procNo = 1410
procNo = 1026
procNo = 1667
procNo = 643
procNo = 771
procNo = 1923
procNo = 2307
procNo = 3074
procNo = 1283
procNo = 1538
procNo = 2818
procNo = 3587
procNo = 2691
procNo = 2434
procNo = 3203
procNo = 3462
procNo = 1795
procNo = 3331
procNo = 3842
procNo = 2179
procNo = 2563
procNo = 2946
procNo = 3715
procNo = 3971
procNo = 899
procNo = 131
procNo = 388
procNo = 516
procNo = 1155
procNo = 260
procNo = 2052
procNo = 1411
procNo = 1027
procNo = 1668
procNo = 644
procNo = 772
procNo = 1924
procNo = 2308
procNo = 3075
procNo = 1284
procNo = 1539
procNo = 2819
procNo = 3588
procNo = 2692
procNo = 2435
procNo = 3204
procNo = 3463
procNo = 1796
procNo = 3332
procNo = 3843
procNo = 2180
procNo = 2564
procNo = 2947
procNo = 3716
procNo = 3972
procNo = 900
procNo = 132
procNo = 389
procNo = 517
procNo = 1156
procNo = 261
procNo = 2053
procNo = 1412
procNo = 1028
procNo = 1669
procNo = 645
procNo = 773
procNo = 1925
procNo = 2309
procNo = 3076
procNo = 1285
procNo = 1540
procNo = 2820
procNo = 3589
procNo = 2693
procNo = 2436
procNo = 3205
procNo = 3464
procNo = 1797
procNo = 3333
procNo = 3844
procNo = 2181
procNo = 2565
procNo = 2948
procNo = 3717
procNo = 3973
procNo = 901
procNo = 133
procNo = 390
procNo = 518
procNo = 1157
procNo = 262
procNo = 2054
procNo = 1413
procNo = 1029
procNo = 1670
procNo = 646
procNo = 774
procNo = 1926
procNo = 2310
procNo = 3077
procNo = 1286
procNo = 1541
procNo = 2821
procNo = 3590
procNo = 2694
procNo = 2437
procNo = 3206
procNo = 3465
procNo = 1798
procNo = 3334
procNo = 3845
procNo = 2182
procNo = 2566
procNo = 2949
procNo = 3718
procNo = 3974
procNo = 902
procNo = 134
procNo = 391
procNo = 519
procNo = 1158
procNo = 263
procNo = 2055
procNo = 1414
procNo = 1030
procNo = 1671
procNo = 647
procNo = 775
procNo = 1927
procNo = 2311
procNo = 3078
procNo = 1287
procNo = 1542
procNo = 2822
procNo = 3591
procNo = 2695
procNo = 2438
procNo = 3207
procNo = 3466
procNo = 1799
procNo = 3335
procNo = 3846
procNo = 2183
procNo = 2567
procNo = 2950
procNo = 3719
procNo = 3975
procNo = 903
procNo = 135
procNo = 392
procNo = 520
procNo = 1159
procNo = 264
procNo = 2056
procNo = 1415
procNo = 1031
procNo = 1672
procNo = 648
procNo = 776
procNo = 1928
procNo = 2312
procNo = 3079
procNo = 1288
procNo = 1543
procNo = 2823
procNo = 3592
procNo = 2696
procNo = 2439
procNo = 3208
procNo = 3467
procNo = 1800
procNo = 3336
procNo = 3847
procNo = 2184
procNo = 2568
procNo = 2951
procNo = 3720
procNo = 3976
procNo = 904
procNo = 393
procNo = 521
procNo = 1160
procNo = 265
procNo = 2057
procNo = 1416
procNo = 1032
procNo = 1673
procNo = 649
procNo = 777
procNo = 1929
procNo = 2313
procNo = 3080
procNo = 1289
procNo = 1544
procNo = 2824
procNo = 3593
procNo = 2697
procNo = 2440
procNo = 3209
procNo = 3468
procNo = 1801
procNo = 3337
procNo = 3848
procNo = 2185
procNo = 2569
procNo = 2952
procNo = 3721
procNo = 3977
procNo = 905
procNo = 136
procNo = 394
procNo = 522
procNo = 1161
procNo = 266
procNo = 2058
procNo = 1417
procNo = 1033
procNo = 1674
procNo = 650
procNo = 778
procNo = 1930
procNo = 2314
procNo = 3081
procNo = 1290
procNo = 1545
procNo = 2825
procNo = 3594
procNo = 2698
procNo = 2441
procNo = 3210
procNo = 3469
procNo = 1802
procNo = 3338
procNo = 3849
procNo = 2186
procNo = 2570
procNo = 2953
procNo = 3722
procNo = 3978
procNo = 906
procNo = 137
procNo = 395
procNo = 523
procNo = 1162
procNo = 267
procNo = 2059
procNo = 1418
procNo = 1034
procNo = 1675
procNo = 651
procNo = 779
procNo = 1931
procNo = 2315
procNo = 3082
procNo = 1291
procNo = 1546
procNo = 2826
procNo = 3595
procNo = 2699
procNo = 2442
procNo = 3211
procNo = 3470
procNo = 1803
procNo = 3339
procNo = 3850
procNo = 2187
procNo = 2571
procNo = 2954
procNo = 3723
procNo = 3979
procNo = 907
procNo = 138
procNo = 396
procNo = 524
procNo = 1163
procNo = 268
procNo = 2060
procNo = 1419
procNo = 1035
procNo = 1676
procNo = 652
procNo = 780
procNo = 1932
procNo = 2316
procNo = 3083
procNo = 1292
procNo = 1547
procNo = 2827
procNo = 3596
procNo = 2700
procNo = 2443
procNo = 3212
procNo = 3471
procNo = 1804
procNo = 3340
procNo = 3851
procNo = 2188
procNo = 2572
procNo = 2955
procNo = 3724
procNo = 3980
procNo = 908
procNo = 139
procNo = 397
procNo = 525
procNo = 1164
procNo = 269
procNo = 2061
procNo = 1420
procNo = 1036
procNo = 1677
procNo = 653
procNo = 781
procNo = 1933
procNo = 2317
procNo = 3084
procNo = 1293
procNo = 1548
procNo = 2828
procNo = 3597
procNo = 2701
procNo = 2444
procNo = 3213
procNo = 3472
procNo = 1805
procNo = 3341
procNo = 3852
procNo = 2189
procNo = 2573
procNo = 2956
procNo = 3725
procNo = 3981
procNo = 909
procNo = 140
Courant Number mean: 5.192694825925887e-12 max: 2.085039370078742e-05
procNo = 398
procNo = 526
procNo = 1165
procNo = 270
procNo = 2062
procNo = 1421
procNo = 1037
procNo = 1678
procNo = 654
procNo = 782
procNo = 1934
procNo = 2318
procNo = 3085
procNo = 1294
procNo = 1549
procNo = 2829
procNo = 3598
procNo = 2702
procNo = 2445
procNo = 3214
procNo = 3473
procNo = 1806
procNo = 3342
procNo = 3853
procNo = 2190
procNo = 2574
procNo = 2957
procNo = 3726
procNo = 3982
procNo = 910
procNo = 141
procNo = 399
procNo = 527
procNo = 1166
procNo = 271
procNo = 2063
procNo = 1422
procNo = 1038
procNo = 1679
procNo = 655
procNo = 783
procNo = 1935
procNo = 2319
procNo = 3086
procNo = 1295
procNo = 1550
procNo = 2830
procNo = 3599
procNo = 2703
procNo = 2446
procNo = 3215
procNo = 3474
procNo = 1807
procNo = 3343
procNo = 3854
procNo = 2191
procNo = 2575
procNo = 2958
procNo = 3727
procNo = 3983
procNo = 911
procNo = 142
procNo = 400
procNo = 528
procNo = 1167
procNo = 272
procNo = 2064
procNo = 1423
procNo = 1039
procNo = 1680
procNo = 656
procNo = 784
procNo = 1936
procNo = 2320
procNo = 3087
procNo = 1296
procNo = 1551
procNo = 2831
procNo = 3600
procNo = 2704
procNo = 2447
procNo = 3216
procNo = 3475
procNo = 1808
procNo = 3344
procNo = 3855
procNo = 2192
procNo = 2576
procNo = 2959
procNo = 3728
procNo = 3984
procNo = 912
procNo = 143
procNo = 401
procNo = 529
procNo = 1168
procNo = 273
procNo = 2065
procNo = 1424
procNo = 1040
procNo = 1681
procNo = 657
procNo = 785
procNo = 1937
procNo = 2321
procNo = 3088
procNo = 1297
procNo = 1552
procNo = 2832
procNo = 3601
procNo = 2705
procNo = 2448
procNo = 3217
procNo = 3476
procNo = 1809
procNo = 3345
procNo = 3856
procNo = 2193
procNo = 2577
procNo = 2960
procNo = 3729
procNo = 3985
procNo = 913
procNo = 144
procNo = 402
procNo = 530
procNo = 1169
procNo = 274
procNo = 2066
procNo = 1425
procNo = 1041
procNo = 1682
procNo = 658
procNo = 786
procNo = 1938
procNo = 2322
procNo = 3089
procNo = 1298
procNo = 1553
procNo = 2833
procNo = 3602
procNo = 2706
procNo = 2449
procNo = 3218
procNo = 3477
procNo = 1810
procNo = 3346
procNo = 3857
procNo = 2194
procNo = 2578
procNo = 2961
procNo = 3730
procNo = 3986
procNo = 914
procNo = 145
procNo = 403
procNo = 531
procNo = 1170
procNo = 275
procNo = 2067
procNo = 1426
procNo = 1042
procNo = 1683
procNo = 659
procNo = 787
procNo = 1939
procNo = 2323
procNo = 3090
procNo = 1299
procNo = 1554
procNo = 2834
procNo = 3603
procNo = 2707
procNo = 2450
procNo = 3219
procNo = 3478
procNo = 1811
procNo = 3347
procNo = 3858
procNo = 2195
procNo = 2579
procNo = 2962
procNo = 3731
procNo = 3987
procNo = 915
procNo = 146

Starting time loop

procNo = 404
procNo = 532
procNo = 1171
procNo = 276
procNo = 2068
procNo = 1427
procNo = 1043
procNo = 1684
procNo = 660
procNo = 788
procNo = 1940
procNo = 2324
procNo = 3091
procNo = 1300
procNo = 1555
procNo = 2835
procNo = 3604
procNo = 2708
procNo = 2451
procNo = 3220
procNo = 3479
procNo = 1812
procNo = 3348
procNo = 3859
procNo = 2196
procNo = 2580
procNo = 2963
procNo = 3732
procNo = 3988
procNo = 916
procNo = 147
procNo = 405
procNo = 533
procNo = 1172
procNo = 277
procNo = 2069
procNo = 1428
procNo = 1044
procNo = 1685
procNo = 661
procNo = 789
procNo = 1941
procNo = 2325
procNo = 3092
procNo = 1301
procNo = 1556
procNo = 2836
procNo = 3605
procNo = 2709
procNo = 2452
procNo = 3221
procNo = 3480
procNo = 1813
procNo = 3349
procNo = 3860
procNo = 2197
procNo = 2581
procNo = 2964
procNo = 3733
procNo = 3989
procNo = 917
procNo = 148
procNo = 406
procNo = 534
procNo = 1173
procNo = 278
procNo = 2070
procNo = 1429
procNo = 1045
procNo = 1686
procNo = 662
procNo = 790
procNo = 1942
procNo = 2326
procNo = 3093
procNo = 1302
procNo = 1557
procNo = 2837
procNo = 3606
procNo = 2710
procNo = 2453
procNo = 3222
procNo = 3481
procNo = 1814
procNo = 3350
procNo = 3861
procNo = 2198
procNo = 2582
procNo = 2965
procNo = 3734
procNo = 3990
procNo = 918
procNo = 149
Courant Number mean: 5.192694825925887e-12 max: 2.085039370078742e-05
deltaT = 1.2e-09
Time = 1.2e-09

PIMPLE: iteration 1
procNo = 407
procNo = 535
procNo = 1174
procNo = 279
procNo = 2071
procNo = 1430
procNo = 1046
procNo = 1687
procNo = 663
procNo = 791
procNo = 1943
procNo = 2327
procNo = 3094
procNo = 1303
procNo = 1558
procNo = 2838
procNo = 3607
procNo = 2711
procNo = 2454
procNo = 3223
procNo = 3482
procNo = 1815
procNo = 3351
procNo = 3862
procNo = 2199
procNo = 2583
procNo = 2966
procNo = 3735
procNo = 3991
procNo = 919
procNo = 150
procNo = 408
procNo = 536
procNo = 1175
procNo = 280
procNo = 2072
procNo = 1431
procNo = 1047
procNo = 1688
procNo = 664
procNo = 792
procNo = 1944
procNo = 2328
procNo = 3095
procNo = 1304
procNo = 1559
procNo = 2839
procNo = 3608
procNo = 2712
procNo = 2455
procNo = 3224
procNo = 3483
procNo = 1816
procNo = 3352
procNo = 3863
procNo = 2200
procNo = 2584
procNo = 2967
procNo = 3736
procNo = 3992
procNo = 920
procNo = 151
procNo = 409
procNo = 537
procNo = 1176
procNo = 281
procNo = 2073
procNo = 1432
procNo = 1048
procNo = 1689
procNo = 665
procNo = 793
procNo = 1945
procNo = 2329
procNo = 3096
procNo = 1305
procNo = 1560
procNo = 2840
procNo = 3609
procNo = 2713
procNo = 2456
procNo = 3225
procNo = 3484
procNo = 1817
procNo = 3353
procNo = 3864
procNo = 2201
procNo = 2585
procNo = 2968
procNo = 3737
procNo = 3993
procNo = 921
procNo = 152
diagonal:  Solving for rho, Initial residual = 0, Final residual = 0, No Iterations 0
procNo = 410
procNo = 538
procNo = 1177
procNo = 282
procNo = 2074
procNo = 1433
procNo = 1049
procNo = 1690
procNo = 666
procNo = 794
procNo = 1946
procNo = 2330
procNo = 3097
procNo = 1306
procNo = 1561
procNo = 2841
procNo = 3610
procNo = 2714
procNo = 2457
procNo = 3226
procNo = 3485
procNo = 1818
procNo = 3354
procNo = 3865
procNo = 2202
procNo = 2586
procNo = 2969
procNo = 3738
procNo = 3994
procNo = 922
procNo = 153
procNo = 411
procNo = 539
procNo = 1178
procNo = 283
procNo = 2075
procNo = 1434
procNo = 1050
procNo = 1691
procNo = 667
procNo = 795
procNo = 1947
procNo = 2331
procNo = 3098
procNo = 1307
procNo = 1562
procNo = 2842
procNo = 3611
procNo = 2715
procNo = 2458
procNo = 3227
procNo = 3486
procNo = 1819
procNo = 3355
procNo = 3866
procNo = 2203
procNo = 2587
procNo = 2970
procNo = 3739
procNo = 3995
procNo = 923
procNo = 154
procNo = 412
procNo = 540
procNo = 1179
procNo = 284
procNo = 2076
procNo = 1435
procNo = 1051
procNo = 1692
procNo = 668
procNo = 796
procNo = 1948
procNo = 2332
procNo = 3099
procNo = 1308
procNo = 1563
procNo = 2843
procNo = 3612
procNo = 2716
procNo = 2459
procNo = 3228
procNo = 3487
procNo = 1820
procNo = 3356
procNo = 3867
procNo = 2204
procNo = 2588
procNo = 2971
procNo = 3740
procNo = 3996
procNo = 924
procNo = 155
procNo = 413
procNo = 541
procNo = 1180
procNo = 285
procNo = 2077
procNo = 1436
procNo = 1052
procNo = 1693
procNo = 669
procNo = 797
procNo = 1949
procNo = 2333
procNo = 3100
procNo = 1309
procNo = 1564
procNo = 2844
procNo = 3613
procNo = 2717
procNo = 2460
procNo = 3229
procNo = 3488
procNo = 1821
procNo = 3357
procNo = 3868
procNo = 2205
procNo = 2589
procNo = 2972
procNo = 3741
procNo = 3997
procNo = 925
procNo = 156
procNo = 414
procNo = 542
procNo = 1181
procNo = 286
procNo = 2078
procNo = 1437
procNo = 1053
procNo = 1694
procNo = 670
procNo = 798
procNo = 1950
procNo = 2334
procNo = 3101
procNo = 1310
procNo = 1565
procNo = 2845
procNo = 3614
procNo = 2718
procNo = 2461
procNo = 3230
procNo = 3489
procNo = 1822
procNo = 3358
procNo = 3869
procNo = 2206
procNo = 2590
procNo = 2973
procNo = 3742
procNo = 3998
procNo = 926
procNo = 157
procNo = 415
procNo = 543
procNo = 1182
procNo = 287
procNo = 2079
procNo = 1438
procNo = 1054
procNo = 1695
procNo = 671
procNo = 799
procNo = 1951
procNo = 2335
procNo = 3102
procNo = 1311
procNo = 1566
procNo = 2846
procNo = 3615
procNo = 2719
procNo = 2462
procNo = 3231
procNo = 3490
procNo = 1823
procNo = 3359
procNo = 3870
procNo = 2207
procNo = 2591
procNo = 2974
procNo = 3743
procNo = 3999
procNo = 927
procNo = 158
procNo = 416
procNo = 544
procNo = 1183
procNo = 288
procNo = 2080
procNo = 1439
procNo = 1055
procNo = 1696
procNo = 672
procNo = 800
procNo = 1952
procNo = 2336
procNo = 3103
procNo = 1312
procNo = 1567
procNo = 2847
procNo = 3616
procNo = 2720
procNo = 2463
procNo = 3232
procNo = 3491
procNo = 1824
procNo = 3360
procNo = 3871
procNo = 2208
procNo = 2592
procNo = 2975
procNo = 3744
procNo = 4000
procNo = 928
procNo = 159
procNo = 417
procNo = 545
procNo = 1184
procNo = 289
procNo = 2081
procNo = 1440
procNo = 1056
procNo = 1697
procNo = 673
procNo = 801
procNo = 1953
procNo = 2337
procNo = 3104
procNo = 1313
procNo = 1568
procNo = 2848
procNo = 3617
procNo = 2721
procNo = 2464
procNo = 3233
procNo = 3492
procNo = 1825
procNo = 3361
procNo = 3872
procNo = 2209
procNo = 2593
procNo = 2976
procNo = 3745
procNo = 4001
procNo = 929
procNo = 160
procNo = 418
procNo = 546
procNo = 1185
procNo = 290
procNo = 2082
procNo = 1441
procNo = 1057
procNo = 1698
procNo = 674
procNo = 802
procNo = 1954
procNo = 2338
procNo = 3105
procNo = 1314
procNo = 1569
procNo = 2849
procNo = 3618
procNo = 2722
procNo = 2465
procNo = 3234
procNo = 3493
procNo = 1826
procNo = 3362
procNo = 3873
procNo = 2210
procNo = 2594
procNo = 2977
procNo = 3746
procNo = 4002
procNo = 930
procNo = 161
procNo = 419
procNo = 547
procNo = 1186
procNo = 291
procNo = 2083
procNo = 1442
procNo = 1058
procNo = 1699
procNo = 675
procNo = 803
procNo = 1955
procNo = 2339
procNo = 3106
procNo = 1315
procNo = 1570
procNo = 2850
procNo = 3619
procNo = 2723
procNo = 2466
procNo = 3235
procNo = 3494
procNo = 1827
procNo = 3363
procNo = 3874
procNo = 2211
procNo = 2595
procNo = 2978
procNo = 3747
procNo = 4003
procNo = 931
procNo = 162
procNo = 420
procNo = 548
procNo = 1187
procNo = 292
procNo = 2084
procNo = 1443
procNo = 1059
procNo = 1700
procNo = 676
procNo = 804
procNo = 1956
procNo = 2340
procNo = 3107
procNo = 1316
procNo = 1571
procNo = 2851
procNo = 3620
procNo = 2724
procNo = 2467
procNo = 3236
procNo = 3495
procNo = 1828
procNo = 3364
procNo = 3875
procNo = 2212
procNo = 2596
procNo = 2979
procNo = 3748
procNo = 4004
procNo = 932
procNo = 163
procNo = 421
procNo = 549
procNo = 1188
procNo = 293
procNo = 2085
procNo = 1444
procNo = 1060
procNo = 1701
procNo = 677
procNo = 805
procNo = 1957
procNo = 2341
procNo = 3108
procNo = 1317
procNo = 1572
procNo = 2852
procNo = 3621
procNo = 2725
procNo = 2468
procNo = 3237
procNo = 3496
procNo = 1829
procNo = 3365
procNo = 3876
procNo = 2213
procNo = 2597
procNo = 2980
procNo = 3749
procNo = 4005
procNo = 933
procNo = 164
procNo = 422
procNo = 550
procNo = 1189
procNo = 294
procNo = 2086
procNo = 1445
procNo = 1061
procNo = 1702
procNo = 678
procNo = 806
procNo = 1958
procNo = 2342
procNo = 3109
procNo = 1318
procNo = 1573
procNo = 2853
procNo = 3622
procNo = 2726
procNo = 2469
procNo = 3238
procNo = 3497
procNo = 1830
procNo = 3366
procNo = 3877
procNo = 2214
procNo = 2598
procNo = 2981
procNo = 3750
procNo = 4006
procNo = 934
procNo = 165
procNo = 423
procNo = 551
procNo = 1190
procNo = 295
procNo = 2087
procNo = 1446
procNo = 1062
procNo = 1703
procNo = 679
procNo = 807
procNo = 1959
procNo = 2343
procNo = 3110
procNo = 1319
procNo = 1574
procNo = 2854
procNo = 3623
procNo = 2727
procNo = 2470
procNo = 3239
procNo = 3498
procNo = 1831
procNo = 3367
procNo = 3878
procNo = 2215
procNo = 2599
procNo = 2982
procNo = 3751
procNo = 4007
procNo = 935
procNo = 166
procNo = 424
procNo = 552
procNo = 1191
procNo = 296
procNo = 2088
procNo = 1447
procNo = 1063
procNo = 1704
procNo = 680
procNo = 808
procNo = 1960
procNo = 2344
procNo = 3111
procNo = 1320
procNo = 1575
procNo = 2855
procNo = 3624
procNo = 2728
procNo = 2471
procNo = 3240
procNo = 3499
procNo = 1832
procNo = 3368
procNo = 3879
procNo = 2216
procNo = 2600
procNo = 2983
procNo = 3752
procNo = 4008
procNo = 936
procNo = 167
procNo = 425
procNo = 553
procNo = 1192
procNo = 297
procNo = 2089
procNo = 1448
procNo = 1064
procNo = 1705
procNo = 681
procNo = 809
procNo = 1961
procNo = 2345
procNo = 3112
procNo = 1321
procNo = 1576
procNo = 2856
procNo = 3625
procNo = 2729
procNo = 2472
procNo = 3241
procNo = 3500
procNo = 1833
procNo = 3369
procNo = 3880
procNo = 2217
procNo = 2601
procNo = 2984
procNo = 3753
procNo = 4009
procNo = 937
procNo = 168
procNo = 426
procNo = 554
procNo = 1193
procNo = 298
procNo = 2090
procNo = 1449
procNo = 1065
procNo = 1706
procNo = 682
procNo = 810
procNo = 1962
procNo = 2346
procNo = 3113
procNo = 1322
procNo = 1577
procNo = 2857
procNo = 3626
procNo = 2730
procNo = 2473
procNo = 3242
procNo = 3501
procNo = 1834
procNo = 3370
procNo = 3881
procNo = 2218
procNo = 2602
procNo = 2985
procNo = 3754
procNo = 4010
procNo = 938
procNo = 169
procNo = 427
procNo = 555
procNo = 1194
procNo = 299
procNo = 2091
procNo = 1450
procNo = 1066
procNo = 1707
procNo = 683
procNo = 811
procNo = 1963
procNo = 2347
procNo = 3114
procNo = 1323
procNo = 1578
procNo = 2858
procNo = 3627
procNo = 2731
procNo = 2474
procNo = 3243
procNo = 3502
procNo = 1835
procNo = 3371
procNo = 3882
procNo = 2219
procNo = 2603
procNo = 2986
procNo = 3755
procNo = 4011
procNo = 939
procNo = 170
procNo = 428
procNo = 556
procNo = 1195
procNo = 300
procNo = 2092
procNo = 1451
procNo = 1067
procNo = 1708
procNo = 684
procNo = 812
procNo = 1964
procNo = 2348
procNo = 3115
procNo = 1324
procNo = 1579
procNo = 2859
procNo = 3628
procNo = 2732
procNo = 2475
procNo = 3244
procNo = 3503
procNo = 1836
procNo = 3372
procNo = 3883
procNo = 2220
procNo = 2604
procNo = 2987
procNo = 3756
procNo = 4012
procNo = 940
procNo = 171
procNo = 429
procNo = 557
procNo = 1196
procNo = 301
procNo = 2093
procNo = 1452
procNo = 1068
procNo = 1709
procNo = 685
procNo = 813
procNo = 1965
procNo = 2349
procNo = 3116
procNo = 1325
procNo = 1580
procNo = 2860
procNo = 3629
procNo = 2733
procNo = 2476
procNo = 3245
procNo = 3504
procNo = 1837
procNo = 3373
procNo = 3884
procNo = 2221
procNo = 2605
procNo = 2988
procNo = 3757
procNo = 4013
procNo = 941
procNo = 172
procNo = 430
procNo = 558
procNo = 1197
procNo = 302
procNo = 2094
procNo = 1453
procNo = 1069
procNo = 1710
procNo = 686
procNo = 814
procNo = 1966
procNo = 2350
procNo = 3117
procNo = 1326
procNo = 1581
procNo = 2861
procNo = 3630
procNo = 2734
procNo = 2477
procNo = 3246
procNo = 3505
procNo = 1838
procNo = 3374
procNo = 3885
procNo = 2222
procNo = 2606
procNo = 2989
procNo = 3758
procNo = 4014
procNo = 942
procNo = 173
procNo = 431
procNo = 559
procNo = 1198
procNo = 303
procNo = 2095
procNo = 1454
procNo = 1070
procNo = 1711
procNo = 687
procNo = 815
procNo = 1967
procNo = 2351
procNo = 3118
procNo = 1327
procNo = 1582
procNo = 2862
procNo = 3631
procNo = 2735
procNo = 2478
procNo = 3247
procNo = 3506
procNo = 1839
procNo = 3375
procNo = 3886
procNo = 2223
procNo = 2607
procNo = 2990
procNo = 3759
procNo = 4015
procNo = 943
procNo = 174
procNo = 432
procNo = 560
procNo = 1199
procNo = 304
procNo = 2096
procNo = 1455
procNo = 1071
procNo = 1712
procNo = 688
procNo = 816
procNo = 1968
procNo = 2352
procNo = 3119
procNo = 1328
procNo = 1583
procNo = 2863
procNo = 3632
procNo = 2736
procNo = 2479
procNo = 3248
procNo = 3507
procNo = 1840
procNo = 3376
procNo = 3887
procNo = 2224
procNo = 2608
procNo = 2991
procNo = 3760
procNo = 4016
procNo = 944
procNo = 175
procNo = 433
procNo = 561
procNo = 1200
procNo = 305
procNo = 2097
procNo = 1456
procNo = 1072
procNo = 1713
procNo = 689
procNo = 817
procNo = 1969
procNo = 2353
procNo = 3120
procNo = 1329
procNo = 1584
procNo = 2864
procNo = 3633
procNo = 2737
procNo = 2480
procNo = 3249
procNo = 3508
procNo = 1841
procNo = 3377
procNo = 3888
procNo = 2225
procNo = 2609
procNo = 2992
procNo = 3761
procNo = 4017
procNo = 945
procNo = 176
procNo = 434
procNo = 562
procNo = 1201
procNo = 306
procNo = 2098
procNo = 1457
procNo = 1073
procNo = 1714
procNo = 690
procNo = 818
procNo = 1970
procNo = 2354
procNo = 3121
procNo = 1330
procNo = 1585
procNo = 2865
procNo = 3634
procNo = 2738
procNo = 2481
procNo = 3250
procNo = 3509
procNo = 1842
procNo = 3378
procNo = 3889
procNo = 2226
procNo = 2610
procNo = 2993
procNo = 3762
procNo = 4018
procNo = 946
procNo = 177
procNo = 435
procNo = 563
procNo = 1202
procNo = 307
procNo = 2099
procNo = 1458
procNo = 1074
procNo = 1715
procNo = 691
procNo = 819
procNo = 1971
procNo = 2355
procNo = 3122
procNo = 1331
procNo = 1586
procNo = 2866
procNo = 3635
procNo = 2739
procNo = 2482
procNo = 3251
procNo = 3510
procNo = 1843
procNo = 3379
procNo = 3890
procNo = 2227
procNo = 2611
procNo = 2994
procNo = 3763
procNo = 4019
procNo = 947
procNo = 178
procNo = 436
procNo = 564
procNo = 1203
procNo = 308
procNo = 2100
procNo = 1459
procNo = 1075
procNo = 1716
procNo = 692
procNo = 820
procNo = 1972
procNo = 2356
procNo = 3123
procNo = 1332
procNo = 1587
procNo = 2867
procNo = 3636
procNo = 2740
procNo = 2483
procNo = 3252
procNo = 3511
procNo = 1844
procNo = 3380
procNo = 3891
procNo = 2228
procNo = 2612
procNo = 2995
procNo = 3764
procNo = 4020
procNo = 948
procNo = 179
procNo = 437
procNo = 565
procNo = 1204
procNo = 309
procNo = 2101
procNo = 1460
procNo = 1076
procNo = 1717
procNo = 693
procNo = 821
procNo = 1973
procNo = 2357
procNo = 3124
procNo = 1333
procNo = 1588
procNo = 2868
procNo = 3637
procNo = 2741
procNo = 2484
procNo = 3253
procNo = 3512
procNo = 1845
procNo = 3381
procNo = 3892
procNo = 2229
procNo = 2613
procNo = 2996
procNo = 3765
procNo = 4021
procNo = 949
procNo = 180
procNo = 438
procNo = 566
procNo = 1205
procNo = 310
procNo = 2102
procNo = 1461
procNo = 1077
procNo = 1718
procNo = 694
procNo = 822
procNo = 1974
procNo = 2358
procNo = 3125
procNo = 1334
procNo = 1589
procNo = 2869
procNo = 3638
procNo = 2742
procNo = 2485
procNo = 3254
procNo = 3513
procNo = 1846
procNo = 3382
procNo = 3893
procNo = 2230
procNo = 2614
procNo = 2997
procNo = 3766
procNo = 4022
procNo = 950
procNo = 181
procNo = 439
procNo = 567
procNo = 1206
procNo = 311
procNo = 2103
procNo = 1462
procNo = 1078
procNo = 1719
procNo = 695
procNo = 823
procNo = 1975
procNo = 2359
procNo = 3126
procNo = 1335
procNo = 1590
procNo = 2870
procNo = 3639
procNo = 2743
procNo = 2486
procNo = 3255
procNo = 3514
procNo = 1847
procNo = 3383
procNo = 3894
procNo = 2231
procNo = 2615
procNo = 2998
procNo = 3767
procNo = 4023
procNo = 951
procNo = 182
procNo = 440
procNo = 568
procNo = 1207
procNo = 312
procNo = 2104
procNo = 1463
procNo = 1079
procNo = 1720
procNo = 696
procNo = 824
procNo = 1976
procNo = 2360
procNo = 3127
procNo = 1336
procNo = 1591
procNo = 2871
procNo = 3640
procNo = 2744
procNo = 2487
procNo = 3256
procNo = 3515
procNo = 1848
procNo = 3384
procNo = 3895
procNo = 2232
procNo = 2616
procNo = 2999
procNo = 3768
procNo = 4024
procNo = 952
procNo = 183
procNo = 441
procNo = 569
procNo = 1208
procNo = 313
procNo = 2105
procNo = 1464
procNo = 1080
procNo = 1721
procNo = 697
procNo = 825
procNo = 1977
procNo = 2361
procNo = 3128
procNo = 1337
procNo = 1592
procNo = 2872
procNo = 3641
procNo = 2745
procNo = 2488
procNo = 3257
procNo = 3516
procNo = 1849
procNo = 3385
procNo = 3896
procNo = 2233
procNo = 2617
procNo = 3000
procNo = 3769
procNo = 4025
procNo = 953
procNo = 184
procNo = 442
procNo = 570
procNo = 1209
procNo = 314
procNo = 2106
procNo = 1465
procNo = 1081
procNo = 1722
procNo = 698
procNo = 826
procNo = 1978
procNo = 2362
procNo = 3129
procNo = 1338
procNo = 1593
procNo = 2873
procNo = 3642
procNo = 2746
procNo = 2489
procNo = 3258
procNo = 3517
procNo = 1850
procNo = 3386
procNo = 3897
procNo = 2234
procNo = 2618
procNo = 3001
procNo = 3770
procNo = 4026
procNo = 954
procNo = 185
procNo = 443
procNo = 571
procNo = 1210
procNo = 315
procNo = 2107
procNo = 1466
procNo = 1082
procNo = 1723
procNo = 699
procNo = 827
procNo = 1979
procNo = 2363
procNo = 3130
procNo = 1339
procNo = 1594
procNo = 2874
procNo = 3643
procNo = 2747
procNo = 2490
procNo = 3259
procNo = 3518
procNo = 1851
procNo = 3387
procNo = 3898
procNo = 2235
procNo = 2619
procNo = 3002
procNo = 3771
procNo = 4027
procNo = 955
procNo = 186
procNo = 444
procNo = 572
procNo = 1211
procNo = 316
procNo = 2108
procNo = 1467
procNo = 1083
procNo = 1724
procNo = 700
procNo = 828
procNo = 1980
procNo = 2364
procNo = 3131
procNo = 1340
procNo = 1595
procNo = 2875
procNo = 3644
procNo = 2748
procNo = 2491
procNo = 3260
procNo = 3519
procNo = 1852
procNo = 3388
procNo = 3899
procNo = 2236
procNo = 2620
procNo = 3003
procNo = 3772
procNo = 4028
procNo = 956
procNo = 187
procNo = 445
procNo = 573
procNo = 1212
procNo = 317
procNo = 2109
procNo = 1468
procNo = 1084
procNo = 1725
procNo = 701
procNo = 829
procNo = 1981
procNo = 2365
procNo = 3132
procNo = 1341
procNo = 1596
procNo = 2876
procNo = 3645
procNo = 2749
procNo = 2492
procNo = 3261
procNo = 3520
procNo = 1853
procNo = 3389
procNo = 3900
procNo = 2237
procNo = 2621
procNo = 3004
procNo = 3773
procNo = 4029
procNo = 957
procNo = 188
procNo = 446
procNo = 574
procNo = 1213
procNo = 318
procNo = 2110
procNo = 1469
procNo = 1085
procNo = 1726
procNo = 702
procNo = 830
procNo = 1982
procNo = 2366
procNo = 3133
procNo = 1342
procNo = 1597
procNo = 2877
procNo = 3646
procNo = 2750
procNo = 2493
procNo = 3262
procNo = 3521
procNo = 1854
procNo = 3390
procNo = 3901
procNo = 2238
procNo = 2622
procNo = 3005
procNo = 3774
procNo = 4030
procNo = 958
procNo = 189
procNo = 447
procNo = 575
procNo = 1214
procNo = 319
procNo = 2111
procNo = 1470
procNo = 1086
procNo = 1727
procNo = 703
procNo = 831
procNo = 1983
procNo = 2367
procNo = 3134
procNo = 1343
procNo = 1598
procNo = 2878
procNo = 3647
procNo = 2751
procNo = 2494
procNo = 3263
procNo = 3522
procNo = 1855
procNo = 3391
procNo = 3902
procNo = 2239
procNo = 2623
procNo = 3006
procNo = 3775
procNo = 4031
procNo = 959
procNo = 190
procNo = 448
procNo = 576
procNo = 1215
procNo = 320
procNo = 2112
procNo = 1471
procNo = 1087
procNo = 1728
procNo = 704
procNo = 832
procNo = 1984
procNo = 2368
procNo = 3135
procNo = 1344
procNo = 1599
procNo = 2879
procNo = 3648
procNo = 2752
procNo = 2495
procNo = 3264
procNo = 3523
procNo = 1856
procNo = 3392
procNo = 3903
procNo = 2240
procNo = 2624
procNo = 3007
procNo = 3776
procNo = 4032
procNo = 960
procNo = 191
procNo = 449
procNo = 577
procNo = 1216
procNo = 321
procNo = 2113
procNo = 1472
procNo = 1088
procNo = 1729
procNo = 705
procNo = 833
procNo = 1985
procNo = 2369
procNo = 3136
procNo = 1345
procNo = 1600
procNo = 2880
procNo = 3649
procNo = 2753
procNo = 2496
procNo = 3265
procNo = 3524
procNo = 1857
procNo = 3393
procNo = 3904
procNo = 2241
procNo = 2625
procNo = 3008
procNo = 3777
procNo = 4033
procNo = 961
procNo = 192
procNo = 450
procNo = 578
procNo = 1217
procNo = 322
procNo = 2114
procNo = 1473
procNo = 1089
procNo = 1730
procNo = 706
procNo = 834
procNo = 1986
procNo = 2370
procNo = 3137
procNo = 1346
procNo = 1601
procNo = 2881
procNo = 3650
procNo = 2754
procNo = 2497
procNo = 3266
procNo = 3525
procNo = 1858
procNo = 3394
procNo = 3905
procNo = 2242
procNo = 2626
procNo = 3009
procNo = 3778
procNo = 4034
procNo = 962
procNo = 193
procNo = 451
procNo = 579
procNo = 1218
procNo = 323
procNo = 2115
procNo = 1474
procNo = 1090
procNo = 1731
procNo = 707
procNo = 835
procNo = 1987
procNo = 2371
procNo = 3138
procNo = 1347
procNo = 1602
procNo = 2882
procNo = 3651
procNo = 2755
procNo = 2498
procNo = 3267
procNo = 3526
procNo = 1859
procNo = 3395
procNo = 3906
procNo = 2243
procNo = 2627
procNo = 3010
procNo = 3779
procNo = 4035
procNo = 963
procNo = 194
procNo = 452
procNo = 580
procNo = 1219
procNo = 324
procNo = 2116
procNo = 1475
procNo = 1091
procNo = 1732
procNo = 708
procNo = 836
procNo = 1988
procNo = 2372
procNo = 3139
procNo = 1348
procNo = 1603
procNo = 2883
procNo = 3652
procNo = 2756
procNo = 2499
procNo = 3268
procNo = 3527
procNo = 1860
procNo = 3396
procNo = 3907
procNo = 2244
procNo = 2628
procNo = 3011
procNo = 3780
procNo = 4036
procNo = 964
procNo = 195
procNo = 453
procNo = 581
procNo = 1220
procNo = 325
procNo = 2117
procNo = 1476
procNo = 1092
procNo = 1733
procNo = 709
procNo = 837
procNo = 1989
procNo = 2373
procNo = 3140
procNo = 1349
procNo = 1604
procNo = 2884
procNo = 3653
procNo = 2757
procNo = 2500
procNo = 3269
procNo = 3528
procNo = 1861
procNo = 3397
procNo = 3908
procNo = 2245
procNo = 2629
procNo = 3012
procNo = 3781
procNo = 4037
procNo = 965
procNo = 196
procNo = 454
procNo = 582
procNo = 1221
procNo = 326
procNo = 2118
procNo = 1477
procNo = 1093
procNo = 1734
procNo = 710
procNo = 838
procNo = 1990
procNo = 2374
procNo = 3141
procNo = 1350
procNo = 1605
procNo = 2885
procNo = 3654
procNo = 2758
procNo = 2501
procNo = 3270
procNo = 3529
procNo = 1862
procNo = 3398
procNo = 3909
procNo = 2246
procNo = 2630
procNo = 3013
procNo = 3782
procNo = 4038
procNo = 966
procNo = 197
procNo = 455
procNo = 583
procNo = 1222
procNo = 327
procNo = 2119
procNo = 1478
procNo = 1094
procNo = 1735
procNo = 711
procNo = 839
procNo = 1991
procNo = 2375
procNo = 3142
procNo = 1351
procNo = 1606
procNo = 2886
procNo = 3655
procNo = 2759
procNo = 2502
procNo = 3271
procNo = 3530
procNo = 1863
procNo = 3399
procNo = 3910
procNo = 2247
procNo = 2631
procNo = 3014
procNo = 3783
procNo = 4039
procNo = 967
procNo = 198
procNo = 456
procNo = 584
procNo = 1223
procNo = 328
procNo = 2120
procNo = 1479
procNo = 1095
procNo = 1736
procNo = 712
procNo = 840
procNo = 1992
procNo = 2376
procNo = 3143
procNo = 1352
procNo = 1607
procNo = 2887
procNo = 3656
procNo = 2760
procNo = 2503
procNo = 3272
procNo = 3531
procNo = 1864
procNo = 3400
procNo = 3911
procNo = 2248
procNo = 2632
procNo = 3015
procNo = 3784
procNo = 4040
procNo = 968
procNo = 199
procNo = 457
procNo = 585
procNo = 1224
procNo = 329
procNo = 2121
procNo = 1480
procNo = 1096
procNo = 1737
procNo = 713
procNo = 841
procNo = 1993
procNo = 2377
procNo = 3144
procNo = 1353
procNo = 1608
procNo = 2888
procNo = 3657
procNo = 2761
procNo = 2504
procNo = 3273
procNo = 3532
procNo = 1865
procNo = 3401
procNo = 3912
procNo = 2249
procNo = 2633
procNo = 3016
procNo = 3785
procNo = 4041
procNo = 969
procNo = 200
procNo = 458
procNo = 586
procNo = 1225
procNo = 330
procNo = 2122
procNo = 1481
procNo = 1097
procNo = 1738
procNo = 714
procNo = 842
procNo = 1994
procNo = 2378
procNo = 3145
procNo = 1354
procNo = 1609
procNo = 2889
procNo = 3658
procNo = 2762
procNo = 2505
procNo = 3274
procNo = 3533
procNo = 1866
procNo = 3402
procNo = 3913
procNo = 2250
procNo = 2634
procNo = 3017
procNo = 3786
procNo = 4042
procNo = 970
procNo = 201
procNo = 459
procNo = 587
procNo = 1226
procNo = 331
procNo = 2123
procNo = 1482
procNo = 1098
procNo = 1739
procNo = 715
procNo = 843
procNo = 1995
procNo = 2379
procNo = 3146
procNo = 1355
procNo = 1610
procNo = 2890
procNo = 3659
procNo = 2763
procNo = 2506
procNo = 3275
procNo = 3534
procNo = 1867
procNo = 3403
procNo = 3914
procNo = 2251
procNo = 2635
procNo = 3018
procNo = 3787
procNo = 4043
procNo = 971
procNo = 202
procNo = 460
procNo = 588
procNo = 1227
procNo = 332
procNo = 2124
procNo = 1483
procNo = 1099
procNo = 1740
procNo = 716
procNo = 844
procNo = 1996
procNo = 2380
procNo = 3147
procNo = 1356
procNo = 1611
procNo = 2891
procNo = 3660
procNo = 2764
procNo = 2507
procNo = 3276
procNo = 3535
procNo = 1868
procNo = 3404
procNo = 3915
procNo = 2252
procNo = 2636
procNo = 3019
procNo = 3788
procNo = 4044
procNo = 972
procNo = 203
procNo = 461
procNo = 589
procNo = 1228
procNo = 333
procNo = 2125
procNo = 1484
procNo = 1100
procNo = 1741
procNo = 717
procNo = 845
procNo = 1997
procNo = 2381
procNo = 3148
procNo = 1357
procNo = 1612
procNo = 2892
procNo = 3661
procNo = 2765
procNo = 2508
procNo = 3277
procNo = 3536
procNo = 1869
procNo = 3405
procNo = 3916
procNo = 2253
procNo = 2637
procNo = 3020
procNo = 3789
procNo = 4045
procNo = 973
procNo = 204
procNo = 462
procNo = 590
procNo = 1229
procNo = 334
procNo = 2126
procNo = 1485
procNo = 1101
procNo = 1742
procNo = 718
procNo = 846
procNo = 1998
procNo = 2382
procNo = 3149
procNo = 1358
procNo = 1613
procNo = 2893
procNo = 3662
procNo = 2766
procNo = 2509
procNo = 3278
procNo = 3537
procNo = 1870
procNo = 3406
procNo = 3917
procNo = 2254
procNo = 2638
procNo = 3021
procNo = 3790
procNo = 4046
procNo = 974
procNo = 205
procNo = 463
procNo = 591
procNo = 1230
procNo = 335
procNo = 2127
procNo = 1486
procNo = 1102
procNo = 1743
procNo = 719
procNo = 847
procNo = 1999
procNo = 2383
procNo = 3150
procNo = 1359
procNo = 1614
procNo = 2894
procNo = 3663
procNo = 2767
procNo = 2510
procNo = 3279
procNo = 3538
procNo = 1871
procNo = 3407
procNo = 3918
procNo = 2255
procNo = 2639
procNo = 3022
procNo = 3791
procNo = 4047
procNo = 975
procNo = 206
procNo = 464
procNo = 592
procNo = 1231
procNo = 336
procNo = 2128
procNo = 1487
procNo = 1103
procNo = 1744
procNo = 720
procNo = 848
procNo = 2000
procNo = 2384
procNo = 3151
procNo = 1360
procNo = 1615
procNo = 2895
procNo = 3664
procNo = 2768
procNo = 2511
procNo = 3280
procNo = 3539
procNo = 1872
procNo = 3408
procNo = 3919
procNo = 2256
procNo = 2640
procNo = 3023
procNo = 3792
procNo = 4048
procNo = 976
procNo = 207
procNo = 465
procNo = 593
procNo = 1232
procNo = 337
procNo = 2129
procNo = 1488
procNo = 1104
procNo = 1745
procNo = 721
procNo = 849
procNo = 2001
procNo = 2385
procNo = 3152
procNo = 1361
procNo = 1616
procNo = 2896
procNo = 3665
procNo = 2769
procNo = 2512
procNo = 3281
procNo = 3540
procNo = 1873
procNo = 3409
procNo = 3920
procNo = 2257
procNo = 2641
procNo = 3024
procNo = 3793
procNo = 4049
procNo = 977
procNo = 208
procNo = 466
procNo = 594
procNo = 1233
procNo = 338
procNo = 2130
procNo = 1489
procNo = 1105
procNo = 1746
procNo = 722
procNo = 850
procNo = 2002
procNo = 2386
procNo = 3153
procNo = 1362
procNo = 1617
procNo = 2897
procNo = 3666
procNo = 2770
procNo = 2513
procNo = 3282
procNo = 3541
procNo = 1874
procNo = 3410
procNo = 3921
procNo = 2258
procNo = 2642
procNo = 3025
procNo = 3794
procNo = 4050
procNo = 978
procNo = 209
procNo = 467
procNo = 595
procNo = 1234
procNo = 339
procNo = 2131
procNo = 1490
procNo = 1106
procNo = 1747
procNo = 723
procNo = 851
procNo = 2003
procNo = 2387
procNo = 3154
procNo = 1363
procNo = 1618
procNo = 2898
procNo = 3667
procNo = 2771
procNo = 2514
procNo = 3283
procNo = 3542
procNo = 1875
procNo = 3411
procNo = 3922
procNo = 2259
procNo = 2643
procNo = 3026
procNo = 3795
procNo = 4051
procNo = 979
procNo = 210
procNo = 468
procNo = 596
procNo = 1235
procNo = 340
procNo = 2132
procNo = 1491
procNo = 1107
procNo = 1748
procNo = 724
procNo = 852
procNo = 2004
procNo = 2388
procNo = 3155
procNo = 1364
procNo = 1619
procNo = 2899
procNo = 3668
procNo = 2772
procNo = 2515
procNo = 3284
procNo = 3543
procNo = 1876
procNo = 3412
procNo = 3923
procNo = 2260
procNo = 2644
procNo = 3027
procNo = 3796
procNo = 4052
procNo = 980
procNo = 211
procNo = 469
procNo = 597
procNo = 1236
procNo = 341
procNo = 2133
procNo = 1492
procNo = 1108
procNo = 1749
procNo = 725
procNo = 853
procNo = 2005
procNo = 2389
procNo = 3156
procNo = 1365
procNo = 1620
procNo = 2900
procNo = 3669
procNo = 2773
procNo = 2516
procNo = 3285
procNo = 3544
procNo = 1877
procNo = 3413
procNo = 3924
procNo = 2261
procNo = 2645
procNo = 3028
procNo = 3797
procNo = 4053
procNo = 981
procNo = 212
procNo = 470
procNo = 598
procNo = 1237
procNo = 342
procNo = 2134
procNo = 1493
procNo = 1109
procNo = 1750
procNo = 726
procNo = 854
procNo = 2006
procNo = 2390
procNo = 3157
procNo = 1366
procNo = 1621
procNo = 2901
procNo = 3670
procNo = 2774
procNo = 2517
procNo = 3286
procNo = 3545
procNo = 1878
procNo = 3414
procNo = 3925
procNo = 2262
procNo = 2646
procNo = 3029
procNo = 3798
procNo = 4054
procNo = 982
procNo = 213
procNo = 471
procNo = 599
procNo = 1238
procNo = 343
procNo = 2135
procNo = 1494
procNo = 1110
procNo = 1751
procNo = 727
procNo = 855
procNo = 2007
procNo = 2391
procNo = 3158
procNo = 1367
procNo = 1622
procNo = 2902
procNo = 3671
procNo = 2775
procNo = 2518
procNo = 3287
procNo = 3546
procNo = 1879
procNo = 3415
procNo = 3926
procNo = 2263
procNo = 2647
procNo = 3030
procNo = 3799
procNo = 4055
procNo = 983
procNo = 214
procNo = 472
procNo = 600
procNo = 1239
procNo = 344
procNo = 2136
procNo = 1495
procNo = 1111
procNo = 1752
procNo = 728
procNo = 856
procNo = 2008
procNo = 2392
procNo = 3159
procNo = 1368
procNo = 1623
procNo = 2903
procNo = 3672
procNo = 2776
procNo = 2519
procNo = 3288
procNo = 3547
procNo = 1880
procNo = 3416
procNo = 3927
procNo = 2264
procNo = 2648
procNo = 3031
procNo = 3800
procNo = 4056
procNo = 984
procNo = 215
procNo = 473
procNo = 601
procNo = 1240
procNo = 345
procNo = 2137
procNo = 1496
procNo = 1112
procNo = 1753
procNo = 729
procNo = 857
procNo = 2009
procNo = 2393
procNo = 3160
procNo = 1369
procNo = 1624
procNo = 2904
procNo = 3673
procNo = 2777
procNo = 2520
procNo = 3289
procNo = 3548
procNo = 1881
procNo = 3417
procNo = 3928
procNo = 2265
procNo = 2649
procNo = 3032
procNo = 3801
procNo = 4057
procNo = 985
procNo = 216
procNo = 474
procNo = 602
procNo = 1241
procNo = 346
procNo = 2138
procNo = 1497
procNo = 1113
procNo = 1754
procNo = 730
procNo = 858
procNo = 2010
procNo = 2394
procNo = 3161
procNo = 1370
procNo = 1625
procNo = 2905
procNo = 3674
procNo = 2778
procNo = 2521
procNo = 3290
procNo = 3549
procNo = 1882
procNo = 3418
procNo = 3929
procNo = 2266
procNo = 2650
procNo = 3033
procNo = 3802
procNo = 4058
procNo = 986
procNo = 217
procNo = 475
procNo = 603
procNo = 1242
procNo = 347
procNo = 2139
procNo = 1498
procNo = 1114
procNo = 1755
procNo = 731
procNo = 859
procNo = 2011
procNo = 2395
procNo = 3162
procNo = 1371
procNo = 1626
procNo = 2906
procNo = 3675
procNo = 2779
procNo = 2522
procNo = 3291
procNo = 3550
procNo = 1883
procNo = 3419
procNo = 3930
procNo = 2267
procNo = 2651
procNo = 3034
procNo = 3803
procNo = 4059
procNo = 987
procNo = 218
procNo = 476
procNo = 604
procNo = 1243
procNo = 348
procNo = 2140
procNo = 1499
procNo = 1115
procNo = 1756
procNo = 732
procNo = 860
procNo = 2012
procNo = 2396
procNo = 3163
procNo = 1372
procNo = 1627
procNo = 2907
procNo = 3676
procNo = 2780
procNo = 2523
procNo = 3292
procNo = 3551
procNo = 1884
procNo = 3420
procNo = 3931
procNo = 2268
procNo = 2652
procNo = 3035
procNo = 3804
procNo = 4060
procNo = 988
procNo = 219
procNo = 477
procNo = 605
procNo = 1244
procNo = 349
procNo = 2141
procNo = 1500
procNo = 1116
procNo = 1757
procNo = 733
procNo = 861
procNo = 2013
procNo = 2397
procNo = 3164
procNo = 1373
procNo = 1628
procNo = 2908
procNo = 3677
procNo = 2781
procNo = 2524
procNo = 3293
procNo = 3552
procNo = 1885
procNo = 3421
procNo = 3932
procNo = 2269
procNo = 2653
procNo = 3036
procNo = 3805
procNo = 4061
procNo = 989
procNo = 220
procNo = 478
procNo = 606
procNo = 1245
procNo = 350
procNo = 2142
procNo = 1501
procNo = 1117
procNo = 1758
procNo = 734
procNo = 862
procNo = 2014
procNo = 2398
procNo = 3165
procNo = 1374
procNo = 1629
procNo = 2909
procNo = 3678
procNo = 2782
procNo = 2525
procNo = 3294
procNo = 3553
procNo = 1886
procNo = 3422
procNo = 3933
procNo = 2270
procNo = 2654
procNo = 3037
procNo = 3806
procNo = 4062
procNo = 990
procNo = 221
procNo = 479
procNo = 607
procNo = 1246
procNo = 351
procNo = 2143
procNo = 1502
procNo = 1118
procNo = 1759
procNo = 735
procNo = 863
procNo = 2015
procNo = 2399
procNo = 3166
procNo = 1375
procNo = 1630
procNo = 2910
procNo = 3679
procNo = 2783
procNo = 2526
procNo = 3295
procNo = 3554
procNo = 1887
procNo = 3423
procNo = 3934
procNo = 2271
procNo = 2655
procNo = 3038
procNo = 3807
procNo = 4063
procNo = 991
procNo = 222
procNo = 480
procNo = 608
procNo = 1247
procNo = 352
procNo = 2144
procNo = 1503
procNo = 1119
procNo = 1760
procNo = 736
procNo = 864
procNo = 2016
procNo = 2400
procNo = 3167
procNo = 1376
procNo = 1631
procNo = 2911
procNo = 3680
procNo = 2784
procNo = 2527
procNo = 3296
procNo = 3555
procNo = 1888
procNo = 3424
procNo = 3935
procNo = 2272
procNo = 2656
procNo = 3039
procNo = 3808
procNo = 4064
procNo = 992
procNo = 223
procNo = 481
procNo = 609
procNo = 1248
procNo = 353
procNo = 2145
procNo = 1504
procNo = 1120
procNo = 1761
procNo = 737
procNo = 865
procNo = 2017
procNo = 2401
procNo = 3168
procNo = 1377
procNo = 1632
procNo = 2912
procNo = 3681
procNo = 2785
procNo = 2528
procNo = 3297
procNo = 3556
procNo = 1889
procNo = 3425
procNo = 3936
procNo = 2273
procNo = 2657
procNo = 3040
procNo = 3809
procNo = 4065
procNo = 993
procNo = 224
procNo = 482
procNo = 610
procNo = 1249
procNo = 354
procNo = 2146
procNo = 1505
procNo = 1121
procNo = 1762
procNo = 738
procNo = 866
procNo = 2018
procNo = 2402
procNo = 3169
procNo = 1378
procNo = 1633
procNo = 2913
procNo = 3682
procNo = 2786
procNo = 2529
procNo = 3298
procNo = 3557
procNo = 1890
procNo = 3426
procNo = 3937
procNo = 2274
procNo = 2658
procNo = 3041
procNo = 3810
procNo = 4066
procNo = 994
procNo = 225
procNo = 483
procNo = 611
procNo = 1250
procNo = 355
procNo = 2147
procNo = 1506
procNo = 1122
procNo = 1763
procNo = 739
procNo = 867
procNo = 2019
procNo = 2403
procNo = 3170
procNo = 1379
procNo = 1634
procNo = 2914
procNo = 3683
procNo = 2787
procNo = 2530
procNo = 3299
procNo = 3558
procNo = 1891
procNo = 3427
procNo = 3938
procNo = 2275
procNo = 2659
procNo = 3042
procNo = 3811
procNo = 4067
procNo = 995
procNo = 226
procNo = 484
procNo = 612
procNo = 1251
procNo = 356
procNo = 2148
procNo = 1507
procNo = 1123
procNo = 1764
procNo = 740
procNo = 868
procNo = 2020
procNo = 2404
procNo = 3171
procNo = 1380
procNo = 1635
procNo = 2915
procNo = 3684
procNo = 2788
procNo = 2531
procNo = 3300
procNo = 3559
procNo = 1892
procNo = 3428
procNo = 3939
procNo = 2276
procNo = 2660
procNo = 3043
procNo = 3812
procNo = 4068
procNo = 996
procNo = 227
procNo = 485
procNo = 613
procNo = 1252
procNo = 357
procNo = 2149
procNo = 1508
procNo = 1124
procNo = 1765
procNo = 741
procNo = 869
procNo = 2021
procNo = 2405
procNo = 3172
procNo = 1381
procNo = 1636
procNo = 2916
procNo = 3685
procNo = 2789
procNo = 2532
procNo = 3301
procNo = 3560
procNo = 1893
procNo = 3429
procNo = 3940
procNo = 2277
procNo = 2661
procNo = 3044
procNo = 3813
procNo = 4069
procNo = 997
procNo = 228
procNo = 486
procNo = 614
procNo = 1253
procNo = 358
procNo = 2150
procNo = 1509
procNo = 1125
procNo = 1766
procNo = 742
procNo = 870
procNo = 2022
procNo = 2406
procNo = 3173
procNo = 1382
procNo = 1637
procNo = 2917
procNo = 3686
procNo = 2790
procNo = 2533
procNo = 3302
procNo = 3561
procNo = 1894
procNo = 3430
procNo = 3941
procNo = 2278
procNo = 2662
procNo = 3045
procNo = 3814
procNo = 4070
procNo = 998
procNo = 229
procNo = 487
procNo = 615
procNo = 1254
procNo = 359
procNo = 2151
procNo = 1510
procNo = 1126
procNo = 1767
procNo = 743
procNo = 871
procNo = 2023
procNo = 2407
procNo = 3174
procNo = 1383
procNo = 1638
procNo = 2918
procNo = 3687
procNo = 2791
procNo = 2534
procNo = 3303
procNo = 3562
procNo = 1895
procNo = 3431
procNo = 3942
procNo = 2279
procNo = 2663
procNo = 3046
procNo = 3815
procNo = 4071
procNo = 999
procNo = 230
procNo = 488
procNo = 616
procNo = 1255
procNo = 360
procNo = 2152
procNo = 1511
procNo = 1127
procNo = 1768
procNo = 744
procNo = 872
procNo = 2024
procNo = 2408
procNo = 3175
procNo = 1384
procNo = 1639
procNo = 2919
procNo = 3688
procNo = 2792
procNo = 2535
procNo = 3304
procNo = 3563
procNo = 1896
procNo = 3432
procNo = 3943
procNo = 2280
procNo = 2664
procNo = 3047
procNo = 3816
procNo = 4072
procNo = 1000
procNo = 231
procNo = 489
procNo = 617
procNo = 1256
procNo = 361
procNo = 2153
procNo = 1512
procNo = 1128
procNo = 1769
procNo = 745
procNo = 873
procNo = 2025
procNo = 2409
procNo = 3176
procNo = 1385
procNo = 1640
procNo = 2920
procNo = 3689
procNo = 2793
procNo = 2536
procNo = 3305
procNo = 3564
procNo = 1897
procNo = 3433
procNo = 3944
procNo = 2281
procNo = 2665
procNo = 3048
procNo = 3817
procNo = 4073
procNo = 1001
procNo = 232
procNo = 490
procNo = 618
procNo = 1257
procNo = 362
procNo = 2154
procNo = 1513
procNo = 1129
procNo = 1770
procNo = 746
procNo = 874
procNo = 2026
procNo = 2410
procNo = 3177
procNo = 1386
procNo = 1641
procNo = 2921
procNo = 3690
procNo = 2794
procNo = 2537
procNo = 3306
procNo = 3565
procNo = 1898
procNo = 3434
procNo = 3945
procNo = 2282
procNo = 2666
procNo = 3049
procNo = 3818
procNo = 4074
procNo = 1002
procNo = 233
procNo = 491
procNo = 619
procNo = 1258
procNo = 363
procNo = 2155
procNo = 1514
procNo = 1130
procNo = 1771
procNo = 747
procNo = 875
procNo = 2027
procNo = 2411
procNo = 3178
procNo = 1387
procNo = 1642
procNo = 2922
procNo = 3691
procNo = 2795
procNo = 2538
procNo = 3307
procNo = 3566
procNo = 1899
procNo = 3435
procNo = 3946
procNo = 2283
procNo = 2667
procNo = 3050
procNo = 3819
procNo = 4075
procNo = 1003
procNo = 234
procNo = 492
procNo = 620
procNo = 1259
procNo = 364
procNo = 2156
procNo = 1515
procNo = 1131
procNo = 1772
procNo = 748
procNo = 876
procNo = 2028
procNo = 2412
procNo = 3179
procNo = 1388
procNo = 1643
procNo = 2923
procNo = 3692
procNo = 2796
procNo = 2539
procNo = 3308
procNo = 3567
procNo = 1900
procNo = 3436
procNo = 3947
procNo = 2284
procNo = 2668
procNo = 3051
procNo = 3820
procNo = 4076
procNo = 1004
procNo = 235
procNo = 493
procNo = 621
procNo = 1260
procNo = 365
procNo = 2157
procNo = 1516
procNo = 1132
procNo = 1773
procNo = 749
procNo = 877
procNo = 2029
procNo = 2413
procNo = 3180
procNo = 1389
procNo = 1644
procNo = 2924
procNo = 3693
procNo = 2797
procNo = 2540
procNo = 3309
procNo = 3568
procNo = 1901
procNo = 3437
procNo = 3948
procNo = 2285
procNo = 2669
procNo = 3052
procNo = 3821
procNo = 4077
procNo = 1005
procNo = 236
procNo = 494
procNo = 622
procNo = 1261
procNo = 366
procNo = 2158
procNo = 1517
procNo = 1133
procNo = 1774
procNo = 750
procNo = 878
procNo = 2030
procNo = 2414
procNo = 3181
procNo = 1390
procNo = 1645
procNo = 2925
procNo = 3694
procNo = 2798
procNo = 2541
procNo = 3310
procNo = 3569
procNo = 1902
procNo = 3438
procNo = 3949
procNo = 2286
procNo = 2670
procNo = 3053
procNo = 3822
procNo = 4078
procNo = 1006
procNo = 237
procNo = 495
procNo = 623
procNo = 1262
procNo = 367
procNo = 2159
procNo = 1518
procNo = 1134
procNo = 1775
procNo = 751
procNo = 879
procNo = 2031
procNo = 2415
procNo = 3182
procNo = 1391
procNo = 1646
procNo = 2926
procNo = 3695
procNo = 2799
procNo = 2542
procNo = 3311
procNo = 3570
procNo = 1903
procNo = 3439
procNo = 3950
procNo = 2287
procNo = 2671
procNo = 3054
procNo = 3823
procNo = 4079
procNo = 1007
procNo = 238
procNo = 496
procNo = 624
procNo = 1263
procNo = 368
procNo = 2160
procNo = 1519
procNo = 1135
procNo = 1776
procNo = 752
procNo = 880
procNo = 2032
procNo = 2416
procNo = 3183
procNo = 1392
procNo = 1647
procNo = 2927
procNo = 3696
procNo = 2800
procNo = 2543
procNo = 3312
procNo = 3571
procNo = 1904
procNo = 3440
procNo = 3951
procNo = 2288
procNo = 2672
procNo = 3055
procNo = 3824
procNo = 4080
procNo = 1008
procNo = 239
procNo = 497
procNo = 625
procNo = 1264
procNo = 369
procNo = 2161
procNo = 1520
procNo = 1136
procNo = 1777
procNo = 753
procNo = 881
procNo = 2033
procNo = 2417
procNo = 3184
procNo = 1393
procNo = 1648
procNo = 2928
procNo = 3697
procNo = 2801
procNo = 2544
procNo = 3313
procNo = 3572
procNo = 1905
procNo = 3441
procNo = 3952
procNo = 2289
procNo = 2673
procNo = 3056
procNo = 3825
procNo = 4081
procNo = 1009
procNo = 240
procNo = 498
procNo = 626
procNo = 1265
procNo = 370
procNo = 2162
procNo = 1521
procNo = 1137
procNo = 1778
procNo = 754
procNo = 882
procNo = 2034
procNo = 2418
procNo = 3185
procNo = 1394
procNo = 1649
procNo = 2929
procNo = 3698
procNo = 2802
procNo = 2545
procNo = 3314
procNo = 3573
procNo = 1906
procNo = 3442
procNo = 3953
procNo = 2290
procNo = 2674
procNo = 3057
procNo = 3826
procNo = 4082
procNo = 1010
procNo = 241
procNo = 499
procNo = 627
procNo = 1266
procNo = 371
procNo = 2163
procNo = 1522
procNo = 1138
procNo = 1779
procNo = 755
procNo = 883
procNo = 2035
procNo = 2419
procNo = 3186
procNo = 1395
procNo = 1650
procNo = 2930
procNo = 3699
procNo = 2803
procNo = 2546
procNo = 3315
procNo = 3574
procNo = 1907
procNo = 3443
procNo = 3954
procNo = 2291
procNo = 2675
procNo = 3058
procNo = 3827
procNo = 4083
procNo = 1011
procNo = 242
procNo = 500
procNo = 628
procNo = 1267
procNo = 372
procNo = 2164
procNo = 1523
procNo = 1139
procNo = 1780
procNo = 756
procNo = 884
procNo = 2036
procNo = 2420
procNo = 3187
procNo = 1396
procNo = 1651
procNo = 2931
procNo = 3700
procNo = 2804
procNo = 2547
procNo = 3316
procNo = 3575
procNo = 1908
procNo = 3444
procNo = 3955
procNo = 2292
procNo = 2676
procNo = 3059
procNo = 3828
procNo = 4084
procNo = 1012
procNo = 243
procNo = 501
procNo = 629
procNo = 1268
procNo = 373
procNo = 2165
procNo = 1524
procNo = 1140
procNo = 1781
procNo = 757
procNo = 885
procNo = 2037
procNo = 2421
procNo = 3188
procNo = 1397
procNo = 1652
procNo = 2932
procNo = 3701
procNo = 2805
procNo = 2548
procNo = 3317
procNo = 3576
procNo = 1909
procNo = 3445
procNo = 3956
procNo = 2293
procNo = 2677
procNo = 3060
procNo = 3829
procNo = 4085
procNo = 1013
procNo = 244
procNo = 502
procNo = 630
procNo = 1269
procNo = 374
procNo = 2166
procNo = 1525
procNo = 1141
procNo = 1782
procNo = 758
procNo = 886
procNo = 2038
procNo = 2422
procNo = 3189
procNo = 1398
procNo = 1653
procNo = 2933
procNo = 3702
procNo = 2806
procNo = 2549
procNo = 3318
procNo = 3577
procNo = 1910
procNo = 3446
procNo = 3957
procNo = 2294
procNo = 2678
procNo = 3061
procNo = 3830
procNo = 4086
procNo = 1014
procNo = 245
procNo = 503
procNo = 631
procNo = 1270
procNo = 375
procNo = 2167
procNo = 1526
procNo = 1142
procNo = 1783
procNo = 759
procNo = 887
procNo = 2039
procNo = 2423
procNo = 3190
procNo = 1399
procNo = 1654
procNo = 2934
procNo = 3703
procNo = 2807
procNo = 2550
procNo = 3319
procNo = 3578
procNo = 1911
procNo = 3447
procNo = 3958
procNo = 2295
procNo = 2679
procNo = 3062
procNo = 3831
procNo = 4087
procNo = 1015
procNo = 246
procNo = 504
procNo = 632
procNo = 1271
procNo = 376
procNo = 2168
procNo = 1527
procNo = 1143
procNo = 1784
procNo = 760
procNo = 888
procNo = 2040
procNo = 2424
procNo = 3191
procNo = 1400
procNo = 1655
procNo = 2935
procNo = 3704
procNo = 2808
procNo = 2551
procNo = 3320
procNo = 3579
procNo = 1912
procNo = 3448
procNo = 3959
procNo = 2296
procNo = 2680
procNo = 3063
procNo = 3832
procNo = 4088
procNo = 1016
procNo = 247
procNo = 505
procNo = 633
procNo = 1272
procNo = 377
procNo = 2169
procNo = 1528
procNo = 1144
procNo = 1785
procNo = 761
procNo = 889
procNo = 2041
procNo = 2425
procNo = 3192
procNo = 1401
procNo = 1656
procNo = 2936
procNo = 3705
procNo = 2809
procNo = 2552
procNo = 3321
procNo = 3580
procNo = 1913
procNo = 3449
procNo = 3960
procNo = 2297
procNo = 2681
procNo = 3064
procNo = 3833
procNo = 4089
procNo = 1017
procNo = 248
procNo = 506
procNo = 634
procNo = 1273
procNo = 378
procNo = 2170
procNo = 1529
procNo = 1145
procNo = 1786
procNo = 762
procNo = 890
procNo = 2042
procNo = 2426
procNo = 3193
procNo = 1402
procNo = 1657
procNo = 2937
procNo = 3706
procNo = 2810
procNo = 2553
procNo = 3322
procNo = 3581
procNo = 1914
procNo = 3450
procNo = 3961
procNo = 2298
procNo = 2682
procNo = 3065
procNo = 3834
procNo = 4090
procNo = 1018
procNo = 249
procNo = 507
procNo = 635
procNo = 1274
procNo = 379
procNo = 2171
procNo = 1530
procNo = 1146
procNo = 1787
procNo = 763
procNo = 891
procNo = 2043
procNo = 2427
procNo = 3194
procNo = 1403
procNo = 1658
procNo = 2938
procNo = 3707
procNo = 2811
procNo = 2554
procNo = 3323
procNo = 3582
procNo = 1915
procNo = 3451
procNo = 3962
procNo = 2299
procNo = 2683
procNo = 3066
procNo = 3835
procNo = 4091
procNo = 1019
procNo = 250
procNo = 508
procNo = 636
procNo = 1275
procNo = 380
procNo = 2172
procNo = 1531
procNo = 1147
procNo = 1788
procNo = 764
procNo = 892
procNo = 2044
procNo = 2428
procNo = 3195
procNo = 1404
procNo = 1659
procNo = 2939
procNo = 3708
procNo = 2812
procNo = 2555
procNo = 3324
procNo = 3583
procNo = 1916
procNo = 3452
procNo = 3963
procNo = 2300
procNo = 2684
procNo = 3067
procNo = 3836
procNo = 4092
procNo = 1020
procNo = 251
procNo = 509
procNo = 637
procNo = 1276
procNo = 381
procNo = 2173
procNo = 1532
procNo = 1148
procNo = 1789
procNo = 765
procNo = 893
procNo = 2045
procNo = 2429
procNo = 3196
procNo = 1405
procNo = 1660
procNo = 2940
procNo = 3709
procNo = 2813
procNo = 2556
procNo = 3325
procNo = 3456
procNo = 1917
procNo = 3453
procNo = 3964
procNo = 2301
procNo = 2685
procNo = 3068
procNo = 3837
procNo = 4093
procNo = 1021
procNo = 252
procNo = 510
procNo = 638
procNo = 1277
procNo = 382
procNo = 2174
procNo = 1533
procNo = 1149
procNo = 1790
procNo = 766
procNo = 894
procNo = 2046
procNo = 2430
procNo = 3197
procNo = 1406
procNo = 1661
procNo = 2941
procNo = 3710
procNo = 2814
procNo = 2557
procNo = 3326
procNo = 3457
procNo = 1918
procNo = 3454
procNo = 3965
procNo = 2302
procNo = 2686
procNo = 3069
procNo = 3838
procNo = 4094
procNo = 1022
procNo = 253
procNo = 511
procNo = 639
procNo = 1278
procNo = 383
procNo = 2175
procNo = 1534
procNo = 1150
procNo = 1791
procNo = 767
procNo = 895
procNo = 2047
procNo = 2431
procNo = 3198
procNo = 1407
procNo = 1662
procNo = 2942
procNo = 3711
procNo = 2815
procNo = 2558
procNo = 3327
procNo = 3458
procNo = 1919
procNo = 3455
procNo = 3966
procNo = 2303
procNo = 2687
procNo = 3070
procNo = 3839
procNo = 4095
procNo = 1023
procNo = 254
procNo = 1279
procNo = 1535
procNo = 1151
procNo = 3199
procNo = 1663
procNo = 2943
procNo = 2559
procNo = 3459
procNo = 3967
procNo = 3071
procNo = 3712
procNo = 255
DILUPBiCG:  Solving for Ux, Initial residual = 1, Final residual = 2.54606112644554e-20, No Iterations 2
DILUPBiCG:  Solving for Uy, Initial residual = 1, Final residual = 3.112660548655955e-20, No Iterations 2
DILUPBiCG:  Solving for Uz, Initial residual = 1, Final residual = 4.234673974605928e-20, No Iterations 2
DILUPBiCG:  Solving for e, Initial residual = 0.9999919681902049, Final residual = 1.703214548110456e-19, No Iterations 2
DILUPBiCG:  Solving for p, Initial residual = 0.9999971037559926, Final residual = 6.164489609346233e-10, No Iterations 1
diagonal:  Solving for rho, Initial residual = 0, Final residual = 0, No Iterations 0
time step continuity errors : sum local = 2.501851099069708e-16, global = -2.499776819041314e-16, cumulative = -2.499776819041314e-16
DILUPBiCG:  Solving for p, Initial residual = 9.151169878843696e-07, Final residual = 1.774545612553113e-15, No Iterations 1
diagonal:  Solving for rho, Initial residual = 0, Final residual = 0, No Iterations 0
time step continuity errors : sum local = 2.669426340901017e-16, global = -2.664597227400287e-16, cumulative = -5.164374046441601e-16
DILUPBiCG:  Solving for k, Initial residual = 0.9999999917047082, Final residual = 4.236330997526301e-20, No Iterations 2
ExecutionTime = 187.83 s  ClockTime = 268 s

ORIG_COMP_STEP = 1.198363496
ORIG_IO_STEP = 22.313609595
Courant Number mean: 6.231265028357049e-12 max: 2.501990921293873e-05
deltaT = 1.44e-09
Time = 2.64e-09

PIMPLE: iteration 1
diagonal:  Solving for rho, Initial residual = 0, Final residual = 0, No Iterations 0
DILUPBiCG:  Solving for Ux, Initial residual = 0.3749195260571483, Final residual = 5.776934132309827e-21, No Iterations 2
DILUPBiCG:  Solving for Uy, Initial residual = 0.3749195261453124, Final residual = 7.067176971926968e-21, No Iterations 2
DILUPBiCG:  Solving for Uz, Initial residual = 0.230759560244518, Final residual = 5.932095266874594e-21, No Iterations 2
DILUPBiCG:  Solving for e, Initial residual = 0.2307617405932272, Final residual = 2.381689874892783e-20, No Iterations 2
DILUPBiCG:  Solving for p, Initial residual = 0.2307686704430559, Final residual = 8.578075769779016e-11, No Iterations 1
diagonal:  Solving for rho, Initial residual = 0, Final residual = 0, No Iterations 0
time step continuity errors : sum local = 5.384729127499687e-16, global = -5.384301980227479e-16, cumulative = -1.054867602666908e-15
DILUPBiCG:  Solving for p, Initial residual = 6.498655524828141e-07, Final residual = 6.823339262684543e-14, No Iterations 1
diagonal:  Solving for rho, Initial residual = 0, Final residual = 0, No Iterations 0
time step continuity errors : sum local = 4.838204253882012e-16, global = -4.83816362646209e-16, cumulative = -1.538683965313117e-15
DILUPBiCG:  Solving for k, Initial residual = 0.7612497249141547, Final residual = 1.96016565593505e-20, No Iterations 2
ExecutionTime = 196.1 s  ClockTime = 302 s

ORIG_COMP_STEP = 8.184794604000004
ORIG_IO_STEP = 44.271953244
Courant Number mean: 7.477563209613563e-12 max: 3.002308059560315e-05
deltaT = 1.728e-09
Time = 4.368e-09

PIMPLE: iteration 1
diagonal:  Solving for rho, Initial residual = 0, Final residual = 0, No Iterations 0
DILUPBiCG:  Solving for Ux, Initial residual = 0.3231073105339837, Final residual = 7.247727264842816e-21, No Iterations 2
DILUPBiCG:  Solving for Uy, Initial residual = 0.3231073094847965, Final residual = 8.883845799982115e-21, No Iterations 2
DILUPBiCG:  Solving for Uz, Initial residual = 0.1406140850730852, Final residual = 5.308735047538785e-21, No Iterations 2
DILUPBiCG:  Solving for e, Initial residual = 0.1406143065047382, Final residual = 2.1199366487121e-20, No Iterations 2
DILUPBiCG:  Solving for p, Initial residual = 0.1406189092601692, Final residual = 7.528487102501884e-11, No Iterations 1
diagonal:  Solving for rho, Initial residual = 0, Final residual = 0, No Iterations 0
time step continuity errors : sum local = 6.575684163310729e-16, global = -6.575327289698927e-16, cumulative = -2.19621669428301e-15
DILUPBiCG:  Solving for p, Initial residual = 4.034491921690956e-07, Final residual = 3.733868549298227e-13, No Iterations 1
diagonal:  Solving for rho, Initial residual = 0, Final residual = 0, No Iterations 0
time step continuity errors : sum local = 6.41896634185619e-16, global = -6.418965237850215e-16, cumulative = -2.838113218068031e-15
DILUPBiCG:  Solving for k, Initial residual = 0.5223922404378051, Final residual = 1.97956198481383e-20, No Iterations 2
ExecutionTime = 202.18 s  ClockTime = 354 s

ORIG_COMP_STEP = 5.895924975
ORIG_IO_STEP = 32.33939977999999
Courant Number mean: 8.973141201877583e-12 max: 3.602653054273846e-05
deltaT = 2.0736e-09
Time = 6.4416e-09

PIMPLE: iteration 1
diagonal:  Solving for rho, Initial residual = 0, Final residual = 0, No Iterations 0
DILUPBiCG:  Solving for Ux, Initial residual = 0.2861773186382373, Final residual = 9.42780037338804e-21, No Iterations 2
DILUPBiCG:  Solving for Uy, Initial residual = 0.2861773178185226, Final residual = 1.159590412658411e-20, No Iterations 2
DILUPBiCG:  Solving for Uz, Initial residual = 0.1060777402151864, Final residual = 5.973197057110156e-21, No Iterations 2
DILUPBiCG:  Solving for e, Initial residual = 0.1060737332108503, Final residual = 2.362805909973227e-20, No Iterations 2
DILUPBiCG:  Solving for p, Initial residual = 0.1060804383213584, Final residual = 8.180850034946991e-11, No Iterations 1
diagonal:  Solving for rho, Initial residual = 0, Final residual = 0, No Iterations 0
time step continuity errors : sum local = 3.580080294537602e-16, global = -3.564301870567438e-16, cumulative = -3.194543405124775e-15
DILUPBiCG:  Solving for p, Initial residual = 2.930038235213033e-07, Final residual = 7.883571738797025e-13, No Iterations 1
diagonal:  Solving for rho, Initial residual = 0, Final residual = 0, No Iterations 0
time step continuity errors : sum local = 3.929407149639417e-16, global = -3.926495709239506e-16, cumulative = -3.587192976048726e-15
DILUPBiCG:  Solving for k, Initial residual = 0.3755560072773892, Final residual = 2.130149320146286e-20, No Iterations 2
ExecutionTime = 203.84 s  ClockTime = 397 s

ORIG_COMP_STEP = 1.489899651999991
ORIG_IO_STEP = 49.167121009
Courant Number mean: 1.076786417167732e-11 max: 4.323015923841612e-05
deltaT = 2.48832e-09
Time = 8.92992e-09

PIMPLE: iteration 1
diagonal:  Solving for rho, Initial residual = 0, Final residual = 0, No Iterations 0
DILUPBiCG:  Solving for Ux, Initial residual = 0.2580113874966456, Final residual = 1.260412991421316e-20, No Iterations 2
DILUPBiCG:  Solving for Uy, Initial residual = 0.2580113870157981, Final residual = 1.557816170131972e-20, No Iterations 2
DILUPBiCG:  Solving for Uz, Initial residual = 0.08805258569665934, Final residual = 7.514544473153621e-21, No Iterations 2
DILUPBiCG:  Solving for e, Initial residual = 0.08804611362623929, Final residual = 2.933405231584593e-20, No Iterations 2
DILUPBiCG:  Solving for p, Initial residual = 0.08805354765460177, Final residual = 9.782638296012279e-11, No Iterations 1
diagonal:  Solving for rho, Initial residual = 0, Final residual = 0, No Iterations 0
time step continuity errors : sum local = 1.195805802588042e-16, global = -4.077017598805842e-17, cumulative = -3.627963152036785e-15
DILUPBiCG:  Solving for p, Initial residual = 1.633953136110478e-07, Final residual = 2.12082431666436e-13, No Iterations 1
diagonal:  Solving for rho, Initial residual = 0, Final residual = 0, No Iterations 0
time step continuity errors : sum local = 1.139345943366491e-16, global = -1.666444322989532e-17, cumulative = -3.64462759526668e-15
DILUPBiCG:  Solving for k, Initial residual = 0.2906873619205839, Final residual = 2.513065668024061e-20, No Iterations 2
ExecutionTime = 211.05 s  ClockTime = 457 s

ORIG_COMP_STEP = 7.006821319000011
ORIG_IO_STEP = 28.45540913299999
Courant Number mean: 1.292157458026781e-11 max: 5.187377896431865e-05
deltaT = 2.985983999999999e-09
Time = 1.19159e-08

PIMPLE: iteration 1
diagonal:  Solving for rho, Initial residual = 0, Final residual = 0, No Iterations 0
DILUPBiCG:  Solving for Ux, Initial residual = 0.2369025577662189, Final residual = 1.734466094710882e-20, No Iterations 2
DILUPBiCG:  Solving for Uy, Initial residual = 0.2369025585297221, Final residual = 2.156921794102325e-20, No Iterations 2
DILUPBiCG:  Solving for Uz, Initial residual = 0.07712839472590774, Final residual = 1.014256300047285e-20, No Iterations 2
DILUPBiCG:  Solving for e, Initial residual = 0.07711758064817169, Final residual = 3.893995561751524e-20, No Iterations 2
DILUPBiCG:  Solving for p, Initial residual = 0.07712645781859688, Final residual = 1.234571868397781e-10, No Iterations 1
diagonal:  Solving for rho, Initial residual = 0, Final residual = 0, No Iterations 0
time step continuity errors : sum local = 3.646365357778035e-16, global = 3.636786162885454e-16, cumulative = -3.280948978978134e-15
DILUPBiCG:  Solving for p, Initial residual = 1.062474204604275e-07, Final residual = 1.69213412611861e-13, No Iterations 1
diagonal:  Solving for rho, Initial residual = 0, Final residual = 0, No Iterations 0
time step continuity errors : sum local = 3.784411722309363e-16, global = 3.734517982792522e-16, cumulative = -2.907497180698882e-15
DILUPBiCG:  Solving for k, Initial residual = 0.2385155073428361, Final residual = 3.204782062383907e-20, No Iterations 2
ExecutionTime = 218.1 s  ClockTime = 500 s

ORIG_COMP_STEP = 6.92788047800002
ORIG_IO_STEP = 50.17090811400001
Courant Number mean: 1.550608968377151e-11 max: 6.224506732903099e-05
deltaT = 3.583180799999999e-09
Time = 1.54991e-08

PIMPLE: iteration 1
diagonal:  Solving for rho, Initial residual = 0, Final residual = 0, No Iterations 0
DILUPBiCG:  Solving for Ux, Initial residual = 0.2210516601036325, Final residual = 2.454895451634874e-20, No Iterations 2
DILUPBiCG:  Solving for Uy, Initial residual = 0.2210516593273077, Final residual = 3.074826687494311e-20, No Iterations 2
DILUPBiCG:  Solving for Uz, Initial residual = 0.06989928706593831, Final residual = 1.440994579706457e-20, No Iterations 2
DILUPBiCG:  Solving for e, Initial residual = 0.06988502885510073, Final residual = 5.4260279924672e-20, No Iterations 2
DILUPBiCG:  Solving for p, Initial residual = 0.06989625097650772, Final residual = 1.61223410575809e-10, No Iterations 1
diagonal:  Solving for rho, Initial residual = 0, Final residual = 0, No Iterations 0
time step continuity errors : sum local = 3.243703436590929e-16, global = 3.240469067083272e-16, cumulative = -2.583450273990555e-15
DILUPBiCG:  Solving for p, Initial residual = 7.961566353794554e-08, Final residual = 1.216752224851539e-13, No Iterations 1
diagonal:  Solving for rho, Initial residual = 0, Final residual = 0, No Iterations 0
time step continuity errors : sum local = 3.178090146065541e-16, global = 3.17198574374238e-16, cumulative = -2.266251699616317e-15
DILUPBiCG:  Solving for k, Initial residual = 0.2042780235407362, Final residual = 4.356943944586679e-20, No Iterations 2
ExecutionTime = 226.07 s  ClockTime = 560 s

ORIG_COMP_STEP = 7.786653207000029
ORIG_IO_STEP = 21.52804575500005
Courant Number mean: 1.860759957181938e-11 max: 7.468909815230524e-05
deltaT = 4.299816959999999e-09
Time = 1.97989e-08

PIMPLE: iteration 1
diagonal:  Solving for rho, Initial residual = 0, Final residual = 0, No Iterations 0
DILUPBiCG:  Solving for Ux, Initial residual = 0.2090170834309893, Final residual = 3.569797237136183e-20, No Iterations 2
DILUPBiCG:  Solving for Uy, Initial residual = 0.2090170821240585, Final residual = 4.506348647096913e-20, No Iterations 2
DILUPBiCG:  Solving for Uz, Initial residual = 0.06483293983306437, Final residual = 2.133145973422567e-20, No Iterations 2
DILUPBiCG:  Solving for e, Initial residual = 0.06481563118638162, Final residual = 7.862509219873215e-20, No Iterations 2
DILUPBiCG:  Solving for p, Initial residual = 0.06482865519962017, Final residual = 2.155135405012456e-10, No Iterations 1
diagonal:  Solving for rho, Initial residual = 0, Final residual = 0, No Iterations 0
time step continuity errors : sum local = 1.384364885836502e-16, global = -7.861206222819618e-17, cumulative = -2.344863761844514e-15
DILUPBiCG:  Solving for p, Initial residual = 6.874066810234471e-08, Final residual = 1.177359306003013e-13, No Iterations 1
diagonal:  Solving for rho, Initial residual = 0, Final residual = 0, No Iterations 0
time step continuity errors : sum local = 1.42567759906072e-16, global = -8.829077516271184e-17, cumulative = -2.433154537007225e-15
DILUPBiCG:  Solving for k, Initial residual = 0.1805907410286145, Final residual = 6.25626919582468e-20, No Iterations 2
ExecutionTime = 231.3 s  ClockTime = 588 s

ORIG_COMP_STEP = 5.146008436000045
ORIG_IO_STEP = 48.85484412900001
Courant Number mean: 2.232954635121195e-11 max: 8.961976116517043e-05
deltaT = 5.159780351999998e-09
Time = 2.49587e-08

PIMPLE: iteration 1
diagonal:  Solving for rho, Initial residual = 0, Final residual = 0, No Iterations 0
DILUPBiCG:  Solving for Ux, Initial residual = 0.1997577576694578, Final residual = 5.330729813809703e-20, No Iterations 2
DILUPBiCG:  Solving for Uy, Initial residual = 0.1997577560266859, Final residual = 6.781636036411469e-20, No Iterations 2
DILUPBiCG:  Solving for Uz, Initial residual = 0.06113762276483467, Final residual = 3.270410348851345e-20, No Iterations 2
DILUPBiCG:  Solving for e, Initial residual = 0.06111656994498643, Final residual = 1.178933359493906e-19, No Iterations 2
DILUPBiCG:  Solving for p, Initial residual = 0.0611323124416298, Final residual = 2.929513055537271e-10, No Iterations 1
diagonal:  Solving for rho, Initial residual = 0, Final residual = 0, No Iterations 0
time step continuity errors : sum local = 2.871541623393995e-16, global = -2.854393746254115e-16, cumulative = -2.718593911632637e-15
DILUPBiCG:  Solving for p, Initial residual = 4.733989155296529e-08, Final residual = 8.916372110604541e-14, No Iterations 1
diagonal:  Solving for rho, Initial residual = 0, Final residual = 0, No Iterations 0
time step continuity errors : sum local = 2.829297467690168e-16, global = -2.804322305941954e-16, cumulative = -2.999026142226833e-15
DILUPBiCG:  Solving for k, Initial residual = 0.1635152993477992, Final residual = 9.433129436236731e-20, No Iterations 2
ExecutionTime = 245.92 s  ClockTime = 653 s

ORIG_COMP_STEP = 14.467472386
ORIG_IO_STEP = 58.47759418800001
Courant Number mean: 2.679608156298788e-11 max: 0.000107533439730967
deltaT = 6.191736422399998e-09
Time = 3.11504e-08

PIMPLE: iteration 1
diagonal:  Solving for rho, Initial residual = 0, Final residual = 0, No Iterations 0
DILUPBiCG:  Solving for Ux, Initial residual = 0.1925418229291431, Final residual = 8.177100966398723e-20, No Iterations 2
DILUPBiCG:  Solving for Uy, Initial residual = 0.1925418214787607, Final residual = 1.047147362522745e-19, No Iterations 2
DILUPBiCG:  Solving for Uz, Initial residual = 0.05836273781203394, Final residual = 5.172327321692202e-20, No Iterations 2
DILUPBiCG:  Solving for e, Initial residual = 0.05833731639305396, Final residual = 1.824636580869638e-19, No Iterations 2
DILUPBiCG:  Solving for p, Initial residual = 0.05835614882559922, Final residual = 4.032060098239637e-10, No Iterations 1
diagonal:  Solving for rho, Initial residual = 0, Final residual = 0, No Iterations 0
time step continuity errors : sum local = 5.186896892829084e-16, global = -5.156594180965197e-16, cumulative = -3.514685560323352e-15
DILUPBiCG:  Solving for p, Initial residual = 3.165534254364397e-08, Final residual = 6.990942923463278e-14, No Iterations 1
diagonal:  Solving for rho, Initial residual = 0, Final residual = 0, No Iterations 0
time step continuity errors : sum local = 5.285685430436535e-16, global = -5.272682183091968e-16, cumulative = -4.041953778632549e-15
DILUPBiCG:  Solving for k, Initial residual = 0.1508056006099029, Final residual = 1.488016739119266e-19, No Iterations 2
ExecutionTime = 259.51 s  ClockTime = 727 s

ORIG_COMP_STEP = 13.39778746800005
ORIG_IO_STEP = 51.08981398599997
Courant Number mean: 3.215621878647635e-11 max: 0.0001290253889150599
deltaT = 7.430083706879997e-09
Time = 3.85805e-08

PIMPLE: iteration 1
diagonal:  Solving for rho, Initial residual = 0, Final residual = 0, No Iterations 0
DILUPBiCG:  Solving for Ux, Initial residual = 0.1868536714292666, Final residual = 1.289883133224938e-19, No Iterations 2
DILUPBiCG:  Solving for Uy, Initial residual = 0.1868536703291739, Final residual = 1.65799614631835e-19, No Iterations 2
DILUPBiCG:  Solving for Uz, Initial residual = 0.05623278757897664, Final residual = 8.413594938490554e-20, No Iterations 2
DILUPBiCG:  Solving for e, Initial residual = 0.05620211825818758, Final residual = 2.91158780307227e-19, No Iterations 2
DILUPBiCG:  Solving for p, Initial residual = 0.05622486007389475, Final residual = 5.602738054655067e-10, No Iterations 1
diagonal:  Solving for rho, Initial residual = 0, Final residual = 0, No Iterations 0
time step continuity errors : sum local = 2.35676336141327e-16, global = 2.118986617103424e-16, cumulative = -3.830055116922206e-15
DILUPBiCG:  Solving for p, Initial residual = 3.783279408290543e-08, Final residual = 9.658632397199758e-14, No Iterations 1
diagonal:  Solving for rho, Initial residual = 0, Final residual = 0, No Iterations 0
time step continuity errors : sum local = 1.989151113054061e-16, global = 1.672648335578071e-16, cumulative = -3.662790283364399e-15
DILUPBiCG:  Solving for k, Initial residual = 0.1411035580663175, Final residual = 2.449709817223877e-19, No Iterations 2
ExecutionTime = 264.45 s  ClockTime = 786 s

ORIG_COMP_STEP = 4.717198891000066
ORIG_IO_STEP = 51.05596001699996
Courant Number mean: 3.858882252675122e-11 max: 0.0001548093385833505
deltaT = 8.916100448255996e-09
Time = 4.74966e-08

PIMPLE: iteration 1
diagonal:  Solving for rho, Initial residual = 0, Final residual = 0, No Iterations 0
DILUPBiCG:  Solving for Ux, Initial residual = 0.1823250914665331, Final residual = 2.101620691538057e-19, No Iterations 2
DILUPBiCG:  Solving for Uy, Initial residual = 0.1823250901956459, Final residual = 2.692100883020785e-19, No Iterations 2
DILUPBiCG:  Solving for Uz, Initial residual = 0.05456975096858235, Final residual = 1.403959128778628e-19, No Iterations 2
DILUPBiCG:  Solving for e, Initial residual = 0.05453284237359145, Final residual = 4.788440134494647e-19, No Iterations 2
DILUPBiCG:  Solving for p, Initial residual = 0.05456012558794638, Final residual = 7.843643543317774e-10, No Iterations 1
[...]
DILUPBiCG:  Solving for Ux, Initial residual = 0.01619978962265767, Final residual = 4.169604900815357e-13, No Iterations 5
DILUPBiCG:  Solving for Uy, Initial residual = 0.01619983848342178, Final residual = 4.279419526357031e-13, No Iterations 5
DILUPBiCG:  Solving for Uz, Initial residual = 0.008006499457827406, Final residual = 2.241867735863288e-13, No Iterations 5
DILUPBiCG:  Solving for e, Initial residual = 0.01123183788750825, Final residual = 9.391718135689787e-15, No Iterations 5
DILUPBiCG:  Solving for p, Initial residual = 0.01462741173235637, Final residual = 3.550880239958483e-05, No Iterations 1
diagonal:  Solving for rho, Initial residual = 0, Final residual = 0, No Iterations 0
time step continuity errors : sum local = 3.702060067737954e-10, global = -1.072055972123473e-10, cumulative = -2.320452903875645e-09
DILUPBiCG:  Solving for p, Initial residual = 0.0001061170460565789, Final residual = 1.133922408216407e-14, No Iterations 5
diagonal:  Solving for rho, Initial residual = 0, Final residual = 0, No Iterations 0
time step continuity errors : sum local = 1.767302809817748e-16, global = 8.876041223182071e-17, cumulative = -2.320452815115233e-09
DILUPBiCG:  Solving for k, Initial residual = 0.009157440601288775, Final residual = 8.718389033180489e-15, No Iterations 6
ExecutionTime = 1186.41 s  ClockTime = 5037 s

ORIG_COMP_STEP = 27.49972836100005
ORIG_IO_STEP = 72.42303634600012
Courant Number mean: 5.729474760990327e-07 max: 0.1995712073840755
deltaT = 2.750483291930657e-06
Time = 0.000176044

PIMPLE: iteration 1
diagonal:  Solving for rho, Initial residual = 0, Final residual = 0, No Iterations 0
DILUPBiCG:  Solving for Ux, Initial residual = 0.01607086055695187, Final residual = 3.642900858811648e-13, No Iterations 5
DILUPBiCG:  Solving for Uy, Initial residual = 0.01607099391973304, Final residual = 3.629653557481484e-13, No Iterations 5
DILUPBiCG:  Solving for Uz, Initial residual = 0.007959949158042061, Final residual = 2.093886569494002e-13, No Iterations 5
DILUPBiCG:  Solving for e, Initial residual = 0.01116818163785102, Final residual = 8.509017825556768e-15, No Iterations 5
DILUPBiCG:  Solving for p, Initial residual = 0.01457476234941137, Final residual = 3.616004596449189e-05, No Iterations 1
diagonal:  Solving for rho, Initial residual = 0, Final residual = 0, No Iterations 0
time step continuity errors : sum local = 3.836167297974249e-10, global = -1.198693702506459e-10, cumulative = -2.440322185365879e-09
DILUPBiCG:  Solving for p, Initial residual = 0.000111091806209268, Final residual = 2.678117450002709e-14, No Iterations 5
diagonal:  Solving for rho, Initial residual = 0, Final residual = 0, No Iterations 0
time step continuity errors : sum local = 1.727552847241737e-16, global = -7.467692530929711e-17, cumulative = -2.440322260042804e-09
DILUPBiCG:  Solving for k, Initial residual = 0.009185013754381081, Final residual = 5.551708797983004e-14, No Iterations 5
ExecutionTime = 1201.14 s  ClockTime = 5126 s

ORIG_COMP_STEP = 14.07930678100001
ORIG_IO_STEP = 64.6625488539994
Courant Number mean: 5.879617265018864e-07 max: 0.1996196040854736
deltaT = 2.755724623873048e-06
Time = 0.0001788

PIMPLE: iteration 1
diagonal:  Solving for rho, Initial residual = 0, Final residual = 0, No Iterations 0
DILUPBiCG:  Solving for Ux, Initial residual = 0.01592335584128491, Final residual = 3.279846824576374e-13, No Iterations 5
DILUPBiCG:  Solving for Uy, Initial residual = 0.01592355948098274, Final residual = 3.179229745081657e-13, No Iterations 5
DILUPBiCG:  Solving for Uz, Initial residual = 0.007903100746071198, Final residual = 1.974758103651067e-13, No Iterations 5
DILUPBiCG:  Solving for e, Initial residual = 0.01116872971424956, Final residual = 7.047780774318446e-15, No Iterations 5
DILUPBiCG:  Solving for p, Initial residual = 0.01457839087841447, Final residual = 3.575073574305591e-05, No Iterations 1
diagonal:  Solving for rho, Initial residual = 0, Final residual = 0, No Iterations 0
time step continuity errors : sum local = 3.858584642093466e-10, global = -1.177834749192348e-10, cumulative = -2.558105734962039e-09
DILUPBiCG:  Solving for p, Initial residual = 0.0001054896679159658, Final residual = 9.609439260995791e-13, No Iterations 4
diagonal:  Solving for rho, Initial residual = 0, Final residual = 0, No Iterations 0
time step continuity errors : sum local = 1.951889857099631e-16, global = 1.10790885550501e-16, cumulative = -2.558105624171154e-09
DILUPBiCG:  Solving for k, Initial residual = 0.009187668197708988, Final residual = 3.22607163754444e-15, No Iterations 6
ExecutionTime = 1208 s  ClockTime = 5208 s

ORIG_COMP_STEP = 6.16876301100001
ORIG_IO_STEP = 62.11586342299961
Courant Number mean: 6.029365891238456e-07 max: 0.1994616261228662
deltaT = 2.763162696944563e-06
Time = 0.000181563

PIMPLE: iteration 1
diagonal:  Solving for rho, Initial residual = 0, Final residual = 0, No Iterations 0
DILUPBiCG:  Solving for Ux, Initial residual = 0.01577882674543675, Final residual = 3.088734673171274e-13, No Iterations 5
DILUPBiCG:  Solving for Uy, Initial residual = 0.01577900739895568, Final residual = 2.922281322470983e-13, No Iterations 5
DILUPBiCG:  Solving for Uz, Initial residual = 0.007825005747801306, Final residual = 1.90251291866213e-13, No Iterations 5
DILUPBiCG:  Solving for e, Initial residual = 0.01123983714600314, Final residual = 9.700045967134724e-13, No Iterations 4
DILUPBiCG:  Solving for p, Initial residual = 0.01458533433708664, Final residual = 3.54338325723511e-05, No Iterations 1
diagonal:  Solving for rho, Initial residual = 0, Final residual = 0, No Iterations 0
time step continuity errors : sum local = 3.889892372867451e-10, global = -1.165489209066559e-10, cumulative = -2.67465454507781e-09
DILUPBiCG:  Solving for p, Initial residual = 0.0001101911809998266, Final residual = 3.303015921171982e-14, No Iterations 5
diagonal:  Solving for rho, Initial residual = 0, Final residual = 0, No Iterations 0
time step continuity errors : sum local = 1.638220653932136e-16, global = 2.831132208152917e-17, cumulative = -2.674654516766487e-09
DILUPBiCG:  Solving for k, Initial residual = 0.009175751980257883, Final residual = 7.357263605885436e-15, No Iterations 5
ExecutionTime = 1238.04 s  ClockTime = 5302 s

ORIG_COMP_STEP = 29.58108127800006
ORIG_IO_STEP = 56.68359895799949
Courant Number mean: 6.185630488906307e-07 max: 0.1990571739688667
deltaT = 2.776250302213894e-06
Time = 0.000184339

PIMPLE: iteration 1
diagonal:  Solving for rho, Initial residual = 0, Final residual = 0, No Iterations 0
DILUPBiCG:  Solving for Ux, Initial residual = 0.01565880458451425, Final residual = 3.052482769941398e-13, No Iterations 5
DILUPBiCG:  Solving for Uy, Initial residual = 0.01565891659617415, Final residual = 2.81921688965482e-13, No Iterations 5
DILUPBiCG:  Solving for Uz, Initial residual = 0.00778685564785211, Final residual = 1.88117860126568e-13, No Iterations 5
DILUPBiCG:  Solving for e, Initial residual = 0.01121532134939412, Final residual = 4.594565126969585e-15, No Iterations 5
DILUPBiCG:  Solving for p, Initial residual = 0.01451854428258779, Final residual = 3.519597864549939e-05, No Iterations 1
diagonal:  Solving for rho, Initial residual = 0, Final residual = 0, No Iterations 0
time step continuity errors : sum local = 3.929187850067628e-10, global = -1.187838211417713e-10, cumulative = -2.793438337908259e-09
DILUPBiCG:  Solving for p, Initial residual = 0.0001082077862831059, Final residual = 1.140964481075294e-13, No Iterations 5
diagonal:  Solving for rho, Initial residual = 0, Final residual = 0, No Iterations 0
time step continuity errors : sum local = 1.644867079575478e-16, global = 3.036383690241345e-17, cumulative = -2.793438307544422e-09
DILUPBiCG:  Solving for k, Initial residual = 0.009160154130399747, Final residual = 8.56529282337443e-15, No Iterations 5
ExecutionTime = 1248.35 s  ClockTime = 5386 s

ORIG_COMP_STEP = 9.648701547000201
ORIG_IO_STEP = 58.53980849100026
Courant Number mean: 6.357627422638267e-07 max: 0.1984543101377704
deltaT = 2.797873525938096e-06
Time = 0.000187137

PIMPLE: iteration 1
diagonal:  Solving for rho, Initial residual = 0, Final residual = 0, No Iterations 0
DILUPBiCG:  Solving for Ux, Initial residual = 0.01562066411887797, Final residual = 3.119467919598249e-13, No Iterations 5
DILUPBiCG:  Solving for Uy, Initial residual = 0.0156207565602503, Final residual = 2.835406201928572e-13, No Iterations 5
DILUPBiCG:  Solving for Uz, Initial residual = 0.007789888058686482, Final residual = 1.914842804607891e-13, No Iterations 5
DILUPBiCG:  Solving for e, Initial residual = 0.01124699570838486, Final residual = 3.068069790867551e-14, No Iterations 5
DILUPBiCG:  Solving for p, Initial residual = 0.01462868026215342, Final residual = 3.50929622489679e-05, No Iterations 1
diagonal:  Solving for rho, Initial residual = 0, Final residual = 0, No Iterations 0
time step continuity errors : sum local = 3.983491412551597e-10, global = -1.202802644311247e-10, cumulative = -2.913718571975546e-09
DILUPBiCG:  Solving for p, Initial residual = 0.0001060471777075478, Final residual = 1.458512665306795e-14, No Iterations 5
diagonal:  Solving for rho, Initial residual = 0, Final residual = 0, No Iterations 0
time step continuity errors : sum local = 1.645420179147248e-16, global = 4.3634045548114e-17, cumulative = -2.9137185283415e-09
DILUPBiCG:  Solving for k, Initial residual = 0.009179249265590871, Final residual = 1.35021577177469e-14, No Iterations 5
ExecutionTime = 1267.53 s  ClockTime = 5465 s

ORIG_COMP_STEP = 18.69526652399963
ORIG_IO_STEP = 58.44075013400015
Courant Number mean: 6.553122605713899e-07 max: 0.2007212993458832
deltaT = 2.787819264877099e-06
Time = 0.000189925

PIMPLE: iteration 1
diagonal:  Solving for rho, Initial residual = 0, Final residual = 0, No Iterations 0
DILUPBiCG:  Solving for Ux, Initial residual = 0.01544998797772737, Final residual = 3.000538260044551e-13, No Iterations 5
DILUPBiCG:  Solving for Uy, Initial residual = 0.0154499880967, Final residual = 2.712860568329114e-13, No Iterations 5
DILUPBiCG:  Solving for Uz, Initial residual = 0.007699526627434293, Final residual = 1.856570162745619e-13, No Iterations 5
DILUPBiCG:  Solving for e, Initial residual = 0.01123385310726734, Final residual = 2.9461750336869e-14, No Iterations 5
DILUPBiCG:  Solving for p, Initial residual = 0.01452822359489271, Final residual = 3.35974260769496e-05, No Iterations 1
diagonal:  Solving for rho, Initial residual = 0, Final residual = 0, No Iterations 0
time step continuity errors : sum local = 3.877170892365133e-10, global = -1.100775001210679e-10, cumulative = -3.023796028462568e-09
DILUPBiCG:  Solving for p, Initial residual = 0.0001085624334459696, Final residual = 1.315750804341513e-14, No Iterations 5
diagonal:  Solving for rho, Initial residual = 0, Final residual = 0, No Iterations 0
time step continuity errors : sum local = 1.623081753947363e-16, global = -2.230182118559805e-18, cumulative = -3.02379603069275e-09
DILUPBiCG:  Solving for k, Initial residual = 0.009120735508050941, Final residual = 4.592511868930528e-14, No Iterations 5
ExecutionTime = 1291.01 s  ClockTime = 5549 s

ORIG_COMP_STEP = 23.0148422960001
ORIG_IO_STEP = 60.16462957400017
Courant Number mean: 6.675356876064526e-07 max: 0.2018914498506973
deltaT = 2.761701168562346e-06
Time = 0.000192687

PIMPLE: iteration 1
diagonal:  Solving for rho, Initial residual = 0, Final residual = 0, No Iterations 0
DILUPBiCG:  Solving for Ux, Initial residual = 0.01520635298943431, Final residual = 2.745164519121589e-13, No Iterations 5
DILUPBiCG:  Solving for Uy, Initial residual = 0.01520623520226487, Final residual = 2.469927336367765e-13, No Iterations 5
DILUPBiCG:  Solving for Uz, Initial residual = 0.007563652679279649, Final residual = 1.734581560490615e-13, No Iterations 5
DILUPBiCG:  Solving for e, Initial residual = 0.01109723998355755, Final residual = 2.655069760484428e-14, No Iterations 5
DILUPBiCG:  Solving for p, Initial residual = 0.01439436910967739, Final residual = 3.285561043611298e-05, No Iterations 1
diagonal:  Solving for rho, Initial residual = 0, Final residual = 0, No Iterations 0
time step continuity errors : sum local = 3.853400828428211e-10, global = -1.100409220411679e-10, cumulative = -3.133836952733918e-09
DILUPBiCG:  Solving for p, Initial residual = 0.0001007434241005857, Final residual = 2.38975795379651e-14, No Iterations 5
diagonal:  Solving for rho, Initial residual = 0, Final residual = 0, No Iterations 0
time step continuity errors : sum local = 1.689457144979307e-16, global = -5.706665044207384e-17, cumulative = -3.133837009800569e-09
DILUPBiCG:  Solving for k, Initial residual = 0.009041274810538453, Final residual = 3.38298930508113e-14, No Iterations 5
ExecutionTime = 1308.3 s  ClockTime = 5628 s

ORIG_COMP_STEP = 16.79098085899932
ORIG_IO_STEP = 61.47768755200013
Courant Number mean: 6.754440863961585e-07 max: 0.2016371769747301
deltaT = 2.739277756213021e-06
Time = 0.000195426

PIMPLE: iteration 1
diagonal:  Solving for rho, Initial residual = 0, Final residual = 0, No Iterations 0
DILUPBiCG:  Solving for Ux, Initial residual = 0.01496739731822814, Final residual = 2.500453683638981e-13, No Iterations 5
DILUPBiCG:  Solving for Uy, Initial residual = 0.01496721052533851, Final residual = 2.243905694338281e-13, No Iterations 5
DILUPBiCG:  Solving for Uz, Initial residual = 0.007420926573371756, Final residual = 1.612655953798231e-13, No Iterations 5
DILUPBiCG:  Solving for e, Initial residual = 0.01099079711593624, Final residual = 2.422414576109907e-14, No Iterations 5
DILUPBiCG:  Solving for p, Initial residual = 0.01416062485107298, Final residual = 3.172939343300356e-05, No Iterations 1
diagonal:  Solving for rho, Initial residual = 0, Final residual = 0, No Iterations 0
time step continuity errors : sum local = 3.781273800106862e-10, global = -1.095462531858921e-10, cumulative = -3.243383262986461e-09
DILUPBiCG:  Solving for p, Initial residual = 0.0001046962914742062, Final residual = 1.622521434425854e-14, No Iterations 5
diagonal:  Solving for rho, Initial residual = 0, Final residual = 0, No Iterations 0
time step continuity errors : sum local = 1.620100995925485e-16, global = -2.388559773414619e-17, cumulative = -3.243383286872059e-09
DILUPBiCG:  Solving for k, Initial residual = 0.008986141324056488, Final residual = 1.663247717870326e-14, No Iterations 5
ExecutionTime = 1315.01 s  ClockTime = 5705 s

ORIG_COMP_STEP = 6.067435015000228
ORIG_IO_STEP = 53.03706737999983
Courant Number mean: 6.838220783257357e-07 max: 0.2007910230946356
deltaT = 2.728486277916865e-06
Time = 0.000198155

PIMPLE: iteration 1
diagonal:  Solving for rho, Initial residual = 0, Final residual = 0, No Iterations 0
DILUPBiCG:  Solving for Ux, Initial residual = 0.01477840802273689, Final residual = 2.352568770399957e-13, No Iterations 5
DILUPBiCG:  Solving for Uy, Initial residual = 0.01477824241374243, Final residual = 2.119740074836124e-13, No Iterations 5
DILUPBiCG:  Solving for Uz, Initial residual = 0.00732410723528594, Final residual = 1.515366173168447e-13, No Iterations 5
DILUPBiCG:  Solving for e, Initial residual = 0.0108749918274957, Final residual = 5.593933448246167e-14, No Iterations 5
DILUPBiCG:  Solving for p, Initial residual = 0.01401838598938493, Final residual = 3.132718350788407e-05, No Iterations 1
diagonal:  Solving for rho, Initial residual = 0, Final residual = 0, No Iterations 0
time step continuity errors : sum local = 3.793294642876433e-10, global = -1.122977714755541e-10, cumulative = -3.355681058347613e-09
DILUPBiCG:  Solving for p, Initial residual = 9.720107384097438e-05, Final residual = 1.601882828803461e-13, No Iterations 5
diagonal:  Solving for rho, Initial residual = 0, Final residual = 0, No Iterations 0
time step continuity errors : sum local = 1.763547711345626e-16, global = 8.950553123863181e-17, cumulative = -3.355680968842082e-09
DILUPBiCG:  Solving for k, Initial residual = 0.00896969303396662, Final residual = 7.93906573603939e-14, No Iterations 5
ExecutionTime = 1334.69 s  ClockTime = 5781 s

ORIG_COMP_STEP = 19.24526863200026
ORIG_IO_STEP = 64.74585163699976
Courant Number mean: 6.950626146274871e-07 max: 0.2003263594224859
deltaT = 2.724041195360124e-06
Time = 0.000200879

PIMPLE: iteration 1
diagonal:  Solving for rho, Initial residual = 0, Final residual = 0, No Iterations 0
DILUPBiCG:  Solving for Ux, Initial residual = 0.01464931798109479, Final residual = 2.294791946930243e-13, No Iterations 5
DILUPBiCG:  Solving for Uy, Initial residual = 0.01464914358334734, Final residual = 2.095640186954329e-13, No Iterations 5
DILUPBiCG:  Solving for Uz, Initial residual = 0.007272177768318493, Final residual = 1.43412586222944e-13, No Iterations 5
DILUPBiCG:  Solving for e, Initial residual = 0.01085279624883392, Final residual = 1.584231731876851e-13, No Iterations 5
DILUPBiCG:  Solving for p, Initial residual = 0.0139526394589364, Final residual = 3.091483854322411e-05, No Iterations 1
diagonal:  Solving for rho, Initial residual = 0, Final residual = 0, No Iterations 0
time step continuity errors : sum local = 3.803169799177903e-10, global = -1.140559001962853e-10, cumulative = -3.469736869038367e-09
DILUPBiCG:  Solving for p, Initial residual = 9.662327705575978e-05, Final residual = 1.057550695700766e-14, No Iterations 5
diagonal:  Solving for rho, Initial residual = 0, Final residual = 0, No Iterations 0
time step continuity errors : sum local = 1.679333461720965e-16, global = 6.66101214396765e-17, cumulative = -3.469736802428246e-09
DILUPBiCG:  Solving for k, Initial residual = 0.008981135389614476, Final residual = 6.961074590728963e-14, No Iterations 5
ExecutionTime = 1345.34 s  ClockTime = 5867 s

ORIG_COMP_STEP = 9.981496082999911
ORIG_IO_STEP = 61.34552872400036
End

ORIG_IO_TIME = 3812.93437104365
ORIG_COMP_TIME = 613.8130499442949
Finalising parallel run
/*---------------------------------------------------------------------------*\
| =========                 |                                                 |
| \\      /  F ield         | OpenFOAM: The Open Source CFD Toolbox           |
|  \\    /   O peration     | Version:  v1912                                 |
|   \\  /    A nd           | Website:  www.openfoam.com                      |
|    \\/     M anipulation  |                                                 |
\*---------------------------------------------------------------------------*/
Build  : _f3950763fe-20191219 OPENFOAM=1912
Arch   : "LSB;label=32;scalar=64"
Exec   : rhoPimpleFoam_METRICS -parallel
Date   : Oct 29 2020
Time   : 22:39:27
Host   : r35c1t7n2
PID    : 154655
I/O    : uncollated
Case   : /lustre/cray/ws9/2/ws/hpcmcast-ashee2/HAWK/apio_256M/4096
nProcs : 4096
Hosts  :
(
    (r35c1t7n2 128)
    (r35c4t2n2 128)
    (r35c4t2n3 128)
    (r35c4t2n4 128)
    (r35c4t3n1 128)
    (r35c4t3n2 128)
    (r35c4t3n3 128)
    (r35c4t3n4 128)
    (r35c4t4n2 128)
    (r35c4t4n3 128)
    (r35c4t4n4 128)
    (r35c4t5n1 128)
    (r35c4t5n2 128)
    (r35c4t6n3 128)
    (r35c4t8n4 128)
    (r36c1t1n4 128)
    (r36c1t2n1 128)
    (r36c1t2n2 128)
    (r36c1t3n1 128)
    (r36c1t3n2 128)
    (r36c1t3n3 128)
    (r36c1t3n4 128)
    (r36c1t4n1 128)
    (r36c1t4n2 128)
    (r36c1t4n3 128)
    (r36c1t4n4 128)
    (r36c1t5n1 128)
    (r36c1t5n2 128)
    (r36c1t5n3 128)
    (r36c1t5n4 128)
    (r37c2t8n1 128)
    (r37c2t8n2 128)
)
Pstream initialized with:
    floatTransfer      : 0
    nProcsSimpleSum    : 0
    commsType          : nonBlocking
    polling iterations : 0
trapFpe: Floating point exception trapping enabled (FOAM_SIGFPE).
fileModificationChecking : Monitoring run-time modified files using timeStampMaster (fileModificationSkew 10)
allowSystemOperations : Allowing user-supplied system call operations

// * * * * * * * * * * * * * * * * * * * * * * * * * * * * * * * * * * * * * //
