/*---------------------------------------------------------------------------*\
| =========                 |                                                 |
| \\      /  F ield         | OpenFOAM: The Open Source CFD Toolbox           |
|  \\    /   O peration     | Version:  v1912                                 |
|   \\  /    A nd           | Website:  www.openfoam.com                      |
|    \\/     M anipulation  |                                                 |
\*---------------------------------------------------------------------------*/
Build  : _f3950763fe-20191219 OPENFOAM=1912
Arch   : "LSB;label=32;scalar=64"
Exec   : rhoPimpleAPIO_METRICS -parallel
Date   : Oct 28 2020
Time   : 15:41:00
Host   : r41c2t1n2
PID    : 167122
I/O    : uncollated
Case   : /lustre/cray/ws9/2/ws/hpcmcast-ashee2/HAWK/apio_128M/4096
nProcs : 4096
Hosts  :
(
    (r41c2t1n2 128)
    (r41c2t1n4 128)
    (r41c2t2n1 128)
    (r41c2t2n2 128)
    (r41c2t2n3 128)
    (r41c2t2n4 128)
    (r41c2t3n1 128)
    (r41c2t3n2 128)
    (r41c2t3n3 128)
    (r41c2t3n4 128)
    (r41c2t4n1 128)
    (r41c2t4n2 128)
    (r41c2t4n3 128)
    (r41c2t4n4 128)
    (r41c2t5n1 128)
    (r41c2t5n2 128)
    (r41c2t5n3 128)
    (r41c2t5n4 128)
    (r41c2t6n1 128)
    (r41c2t6n2 128)
    (r41c4t5n1 128)
    (r41c4t5n2 128)
    (r41c4t5n3 128)
    (r41c4t6n2 128)
    (r41c4t6n4 128)
    (r41c4t7n1 128)
    (r41c4t7n2 128)
    (r41c4t7n3 128)
    (r41c4t7n4 128)
    (r42c1t1n1 128)
    (r42c1t1n2 128)
    (r42c1t1n3 128)
)
Pstream initialized with:
    floatTransfer      : 0
    nProcsSimpleSum    : 0
    commsType          : nonBlocking
    polling iterations : 0
trapFpe: Floating point exception trapping enabled (FOAM_SIGFPE).
fileModificationChecking : Monitoring run-time modified files using timeStampMaster (fileModificationSkew 10)
allowSystemOperations : Allowing user-supplied system call operations

// * * * * * * * * * * * * * * * * * * * * * * * * * * * * * * * * * * * * * //
Create time

Create mesh for time = 0


PIMPLE: Operating solver in PISO mode

Reading thermophysical properties

Selecting thermodynamics package 
{
    type            hePsiThermo;
    mixture         pureMixture;
    transport       const;
    thermo          eConst;
    equationOfState perfectGas;
    specie          specie;
    energy          sensibleInternalEnergy;
}

Reading field U

Reading/calculating face flux field phi

--> FOAM Warning : 
    From function Foam::pressureControl::pressureControl(const volScalarField&, const volScalarField&, const Foam::dictionary&, bool)
    in file cfdTools/general/pressureControl/pressureControl.C at line 123
    Reading "/lustre/cray/ws9/2/ws/hpcmcast-ashee2/HAWK/apio_128M/4096/system/fvSolution.PIMPLE"
    'rhoMax' specified rather than 'pMax' or 'pMaxFactor'
    This is supported for backward-compatibility but 'pMax' or 'pMaxFactor' are more reliable.
--> FOAM Warning : 
    From function Foam::pressureControl::pressureControl(const volScalarField&, const volScalarField&, const Foam::dictionary&, bool)
    in file cfdTools/general/pressureControl/pressureControl.C at line 178
    Reading "/lustre/cray/ws9/2/ws/hpcmcast-ashee2/HAWK/apio_128M/4096/system/fvSolution.PIMPLE"
    'rhoMin' specified rather than 'pMin' or 'pMinFactor'
    This is supported for backward-compatibility but 'pMin' or 'pMinFactor' are more reliable.
pressureControl
    pMax 1726187.557059955
    pMin 4747.015781914877

Creating turbulence model

Selecting turbulence model type LES
Selecting LES turbulence model kEqn
Selecting LES delta type cubeRootVol
LES
{
    LESModel        kEqn;
    turbulence      on;
    printCoeffs     on;
    delta           cubeRootVol;
    cubeRootVolCoeffs
    {
        deltaCoeff      1;
    }
    PrandtlCoeffs
    {
        delta           cubeRootVol;
        cubeRootVolCoeffs
        {
            deltaCoeff      1;
        }
        smoothCoeffs
        {
            delta           cubeRootVol;
            cubeRootVolCoeffs
            {
                deltaCoeff      1;
            }
            maxDeltaRatio   1.1;
        }
        Cdelta          0.158;
    }
    vanDriestCoeffs
    {
        delta           cubeRootVol;
        cubeRootVolCoeffs
        {
            deltaCoeff      1;
        }
        smoothCoeffs
        {
            delta           cubeRootVol;
            cubeRootVolCoeffs
            {
                deltaCoeff      1;
            }
            maxDeltaRatio   1.1;
        }
        Aplus           26;
        Cdelta          0.158;
    }
    smoothCoeffs
    {
        delta           cubeRootVol;
        cubeRootVolCoeffs
        {
            deltaCoeff      1;
        }
        maxDeltaRatio   1.1;
    }
    Ce              1.048;
    Ck              0.094;
}

Creating field dpdt

Creating field kinetic energy K

No MRF models present

APIO_procNo = 51
APIO_procNo = 52
APIO_procNo = 53
APIO_procNo = 54
APIO_procNo = 55
APIO_procNo = 56
APIO_procNo = 57
APIO_procNo = 58
APIO_procNo = 59
APIO_procNo = 60
APIO_procNo = 61
APIO_procNo = 62
APIO_procNo = 63
APIO_procNo = 64
writeThread 64 on CPU 192
APIO_procNo = 65
writeThread 65 on CPU 193
APIO_procNo = 66
APIO_procNo = 67
APIO_procNo = 68
APIO_procNo = 69
APIO_procNo = 70
APIO_procNo = 71
APIO_procNo = 72
APIO_procNo = 73
APIO_procNo = 74
APIO_procNo = 75
APIO_procNo = 76
writeThread 76 on CPU 204
APIO_procNo = 77
APIO_procNo = 78
APIO_procNo = 79
APIO_procNo = 80
APIO_procNo = 81
APIO_procNo = 82
APIO_procNo = 83
APIO_procNo = 84
APIO_procNo = 85
APIO_procNo = 86
APIO_procNo = 87
APIO_procNo = 88
APIO_procNo = 89
APIO_procNo = 90
APIO_procNo = 91
APIO_procNo = 92
APIO_procNo = 93
APIO_procNo = 94
APIO_procNo = 95
APIO_procNo = 96
writeThread 96 on CPU 224
APIO_procNo = 97
writeThread 97 on CPU 225
APIO_procNo = 98
writeThread 98 on CPU 226
APIO_procNo = 99
writeThread 99 on CPU 227
APIO_procNo = 100
writeThread 100 on CPU 228
APIO_procNo = 101
writeThread 101 on CPU 229
APIO_procNo = 102
writeThread 102 on CPU 230
APIO_procNo = 103
APIO_procNo = 104
writeThread 104 on CPU 232
APIO_procNo = 105
APIO_procNo = 106
writeThread 106 on CPU 234
APIO_procNo = 107
writeThread 107 on CPU 235
APIO_procNo = 108
writeThread 108 on CPU 236
APIO_procNo = 109
writeThread 109 on CPU 237
APIO_procNo = 110
writeThread 110 on CPU 238
APIO_procNo = 111
writeThread 111 on CPU 239
APIO_procNo = 112
APIO_procNo = 113
writeThread 113 on CPU 241
APIO_procNo = 114
APIO_procNo = 115
writeThread 115 on CPU 243
APIO_procNo = 116
APIO_procNo = 117
APIO_procNo = 118
APIO_procNo = 119
APIO_procNo = 120
APIO_procNo = 121
APIO_procNo = 122
APIO_procNo = 123
APIO_procNo = 124
writeThread 124 on CPU 252
APIO_procNo = 125
APIO_procNo = 126
APIO_procNo = 127
No finite volume options present
APIO_procNo = 0
APIO_masterNo = 0
APIO_procNo = 1
APIO_procNo = 2
APIO_procNo = 3
APIO_procNo = 4
APIO_procNo = 5
APIO_procNo = 6
APIO_procNo = 7
APIO_procNo = 8
APIO_procNo = 9
APIO_procNo = 10
APIO_procNo = 11
APIO_procNo = 12
APIO_procNo = 13
APIO_procNo = 14
APIO_procNo = 15
APIO_procNo = 16
writeThread 16 on CPU 144
APIO_procNo = 17
writeThread 17 on CPU 145
APIO_procNo = 18
writeThread 18 on CPU 146
APIO_procNo = 19
writeThread 19 on CPU 147
APIO_procNo = 20
writeThread 20 on CPU 148
APIO_procNo = 21
writeThread 21 on CPU 149
APIO_procNo = 22
writeThread 22 on CPU 150
APIO_procNo = 23
writeThread 23 on CPU 151
APIO_procNo = 24
writeThread 24 on CPU 152
APIO_procNo = 25
APIO_procNo = 26
writeThread 26 on CPU 154
APIO_procNo = 27
APIO_procNo = 28
writeThread 28 on CPU 156
APIO_procNo = 29
writeThread 29 on CPU 157
APIO_procNo = 30
writeThread 30 on CPU 158
APIO_procNo = 31
writeThread 31 on CPU 159
APIO_procNo = 32
APIO_procNo = 33
APIO_procNo = 34
APIO_procNo = 35
APIO_procNo = 36
APIO_procNo = 37
APIO_procNo = 38
APIO_procNo = 39
APIO_procNo = 40
APIO_procNo = 41
APIO_procNo = 42
APIO_procNo = 43
APIO_procNo = 44
APIO_procNo = 45
APIO_procNo = 46
APIO_procNo = 47
APIO_procNo = 48
APIO_procNo = 49
APIO_procNo = 50
writeThread 84 on CPU 212
writeThread 85 on CPU 213
writeThread 86 on CPU 214
writeThread 87 on CPU 215
writeThread 89 on CPU 217
writeThread 92 on CPU 220
writeThread 93 on CPU 221
writeThread 94 on CPU 222
writeThread 95 on CPU 223
writeThread 105 on CPU 233
writeThread 0 on CPU 128
writeThread 1 on CPU 129
writeThread 2 on CPU 130
writeThread 3 on CPU 131
writeThread 4 on CPU 132
writeThread 5 on CPU 133
writeThread 6 on CPU 134
writeThread 7 on CPU 135
writeThread 8 on CPU 136
writeThread 9 on CPU 137
writeThread 10 on CPU 138
writeThread 11 on CPU 139
writeThread 12 on CPU 140
writeThread 13 on CPU 141
writeThread 14 on CPU 142
writeThread 15 on CPU 143
writeThread 25 on CPU 153
writeThread 27 on CPU 155
writeThread 32 on CPU 160
writeThread 33 on CPU 161
writeThread 34 on CPU 162
writeThread 35 on CPU 163
writeThread 36 on CPU 164
writeThread 37 on CPU 165
writeThread 38 on CPU 166
writeThread 39 on CPU 167
writeThread 40 on CPU 168
writeThread 41 on CPU 169
writeThread 42 on CPU 170
writeThread 43 on CPU 171
writeThread 44 on CPU 172
writeThread 45 on CPU 173
writeThread 46 on CPU 174
writeThread 47 on CPU 175
writeThread 48 on CPU 176
writeThread 49 on CPU 177
writeThread 127 on CPU 255
writeThread 51 on CPU 179
writeThread 52 on CPU 180
writeThread 53 on CPU 181
writeThread 54 on CPU 182
writeThread 55 on CPU 183
writeThread 56 on CPU 184
writeThread 57 on CPU 185
writeThread 58 on CPU 186
writeThread 59 on CPU 187
writeThread 60 on CPU 188
writeThread 61 on CPU 189
writeThread 62 on CPU 190
writeThread 63 on CPU 191
writeThread 66 on CPU 194
writeThread 67 on CPU 195
writeThread 68 on CPU 196
writeThread 69 on CPU 197
writeThread 70 on CPU 198
writeThread 71 on CPU 199
writeThread 72 on CPU 200
writeThread 73 on CPU 201
writeThread 74 on CPU 202
writeThread 75 on CPU 203
writeThread 77 on CPU 205
writeThread 78 on CPU 206
writeThread 79 on CPU 207
writeThread 80 on CPU 208
writeThread 81 on CPU 209
writeThread 82 on CPU 210
writeThread 83 on CPU 211
writeThread 50 on CPU 178
writeThread 88 on CPU 216
writeThread 90 on CPU 218
writeThread 91 on CPU 219
writeThread 103 on CPU 231
writeThread 112 on CPU 240
writeThread 114 on CPU 242
writeThread 116 on CPU 244
writeThread 117 on CPU 245
writeThread 118 on CPU 246
writeThread 119 on CPU 247
writeThread 120 on CPU 248
writeThread 121 on CPU 249
writeThread 122 on CPU 250
writeThread 123 on CPU 251
writeThread 125 on CPU 253
writeThread 126 on CPU 254
APIO_procNo = 1152
writeThread 1152 on CPU 128
APIO_procNo = 3200
APIO_procNo = 768
writeThread 768 on CPU 128
APIO_procNo = 3328
APIO_procNo = 640
writeThread 640 on CPU 128
APIO_procNo = 2816
APIO_procNo = 128
APIO_procNo = 1792
writeThread 1792 on CPU 128
APIO_procNo = 1024
writeThread 1024 on CPU 128
APIO_procNo = 2304
APIO_procNo = 1280
APIO_procNo = 2688
APIO_procNo = 1920
APIO_procNo = 2432
writeThread 2432 on CPU 128
APIO_procNo = 512
APIO_procNo = 2176
APIO_procNo = 2944
APIO_procNo = 3968
APIO_procNo = 256
writeThread 256 on CPU 128
APIO_procNo = 1536
writeThread 1536 on CPU 128
APIO_procNo = 3584
APIO_procNo = 2560
APIO_procNo = 1664
writeThread 1664 on CPU 128
APIO_procNo = 1153
writeThread 1153 on CPU 129
APIO_procNo = 3201
APIO_procNo = 769
writeThread 769 on CPU 129
APIO_procNo = 3329
APIO_procNo = 3072
APIO_procNo = 896
writeThread 896 on CPU 128
APIO_procNo = 641
APIO_procNo = 2817
APIO_procNo = 3712
APIO_procNo = 3456
writeThread 3456 on CPU 128
APIO_procNo = 129
APIO_procNo = 1793
writeThread 1793 on CPU 129
APIO_procNo = 1025
writeThread 1025 on CPU 129
APIO_procNo = 2305
APIO_procNo = 1281
APIO_procNo = 2689
APIO_procNo = 1921
APIO_procNo = 2433
APIO_procNo = 2048
APIO_procNo = 513
APIO_procNo = 2177
writeThread 2177 on CPU 129
APIO_procNo = 2945
writeThread 2945 on CPU 129
APIO_procNo = 1408
APIO_procNo = 384
writeThread 384 on CPU 128
APIO_procNo = 3969
APIO_procNo = 257
writeThread 257 on CPU 129
APIO_procNo = 1537
APIO_procNo = 3840
writeThread 3840 on CPU 128
APIO_procNo = 3585
APIO_procNo = 2561
APIO_procNo = 1665
APIO_procNo = 1154
writeThread 1154 on CPU 130
APIO_procNo = 3202
writeThread 3202 on CPU 130
APIO_procNo = 770
writeThread 770 on CPU 130
APIO_procNo = 3330
writeThread 3330 on CPU 130
APIO_procNo = 3073
writeThread 3073 on CPU 129
APIO_procNo = 897
writeThread 897 on CPU 129
APIO_procNo = 642
APIO_procNo = 2818
APIO_procNo = 3713
APIO_procNo = 3457
writeThread 3457 on CPU 129
APIO_procNo = 130
APIO_procNo = 1794
writeThread 1794 on CPU 130
APIO_procNo = 1026
APIO_procNo = 2306
APIO_procNo = 1282
APIO_procNo = 2690
APIO_procNo = 1922
APIO_procNo = 2434
APIO_procNo = 2049
APIO_procNo = 514
APIO_procNo = 2178
APIO_procNo = 2946
writeThread 2946 on CPU 130
APIO_procNo = 1409
APIO_procNo = 385
writeThread 385 on CPU 129
APIO_procNo = 3970
writeThread 3970 on CPU 130
APIO_procNo = 258
writeThread 258 on CPU 130
APIO_procNo = 1538
writeThread 1538 on CPU 130
APIO_procNo = 3841
writeThread 3841 on CPU 129
APIO_procNo = 3586
APIO_procNo = 2562
APIO_procNo = 1666
writeThread 1666 on CPU 130
APIO_procNo = 1155
writeThread 1155 on CPU 131
APIO_procNo = 3203
APIO_procNo = 771
writeThread 771 on CPU 131
APIO_procNo = 3331
APIO_procNo = 3074
writeThread 3074 on CPU 130
APIO_procNo = 898
APIO_procNo = 643
APIO_procNo = 2819
APIO_procNo = 3714
writeThread 3714 on CPU 130
APIO_procNo = 3458
writeThread 3458 on CPU 130
APIO_procNo = 131
APIO_procNo = 1795
writeThread 1795 on CPU 131
APIO_procNo = 1027
APIO_procNo = 2307
APIO_procNo = 1283
APIO_procNo = 2691
APIO_procNo = 1923
APIO_procNo = 2435
APIO_procNo = 2050
APIO_procNo = 515
APIO_procNo = 2179
APIO_procNo = 2947
writeThread 2947 on CPU 131
APIO_procNo = 1410
APIO_procNo = 386
writeThread 386 on CPU 130
APIO_procNo = 3971
APIO_procNo = 259
writeThread 259 on CPU 131
APIO_procNo = 1539
writeThread 1539 on CPU 131
APIO_procNo = 3842
writeThread 3842 on CPU 130
APIO_procNo = 3587
writeThread 3587 on CPU 131
APIO_procNo = 2563
APIO_procNo = 1667
APIO_procNo = 1156
writeThread 1156 on CPU 132
APIO_procNo = 3204
APIO_procNo = 772
writeThread 772 on CPU 132
APIO_procNo = 3332
APIO_procNo = 3075
writeThread 3075 on CPU 131
APIO_procNo = 899
APIO_procNo = 644
APIO_procNo = 2820
APIO_procNo = 3715
APIO_procNo = 3459
writeThread 3459 on CPU 131
APIO_procNo = 132
APIO_procNo = 1796
APIO_procNo = 1028
APIO_procNo = 2308
APIO_procNo = 1284
APIO_procNo = 2692
APIO_procNo = 1924
APIO_procNo = 2436
APIO_procNo = 2051
APIO_procNo = 516
APIO_procNo = 2180
APIO_procNo = 2948
writeThread 2948 on CPU 132
APIO_procNo = 1411
APIO_procNo = 387
writeThread 387 on CPU 131
APIO_procNo = 3972
APIO_procNo = 260
writeThread 260 on CPU 132
APIO_procNo = 1540
writeThread 1540 on CPU 132
APIO_procNo = 3843
writeThread 3843 on CPU 131
APIO_procNo = 3588
writeThread 3588 on CPU 132
APIO_procNo = 2564
APIO_procNo = 1668
writeThread 1668 on CPU 132
APIO_procNo = 1157
writeThread 1157 on CPU 133
APIO_procNo = 3205
APIO_procNo = 773
writeThread 773 on CPU 133
APIO_procNo = 3333
APIO_procNo = 3076
APIO_procNo = 900
writeThread 900 on CPU 132
APIO_procNo = 645
APIO_procNo = 2821
APIO_procNo = 3716
APIO_procNo = 3460
APIO_procNo = 133
APIO_procNo = 1797
APIO_procNo = 1029
APIO_procNo = 2309
APIO_procNo = 1285
APIO_procNo = 2693
APIO_procNo = 1925
APIO_procNo = 2437
writeThread 2437 on CPU 133
APIO_procNo = 2052
APIO_procNo = 517
APIO_procNo = 2181
APIO_procNo = 2949
writeThread 2949 on CPU 133
APIO_procNo = 1412
writeThread 1412 on CPU 132
APIO_procNo = 388
writeThread 388 on CPU 132
APIO_procNo = 3973
APIO_procNo = 261
writeThread 261 on CPU 133
APIO_procNo = 1541
writeThread 1541 on CPU 133
APIO_procNo = 3844
writeThread 3844 on CPU 132
APIO_procNo = 3589
writeThread 3589 on CPU 133
APIO_procNo = 2565
APIO_procNo = 1669
APIO_procNo = 1158
writeThread 1158 on CPU 134
APIO_procNo = 3206
APIO_procNo = 774
writeThread 774 on CPU 134
APIO_procNo = 3334
APIO_procNo = 3077
APIO_procNo = 901
APIO_procNo = 646
APIO_procNo = 2822
APIO_procNo = 3717
APIO_procNo = 3461
APIO_procNo = 134
APIO_procNo = 1798
APIO_procNo = 1030
APIO_procNo = 2310
APIO_procNo = 1286
APIO_procNo = 2694
APIO_procNo = 1926
APIO_procNo = 2438
APIO_procNo = 2053
APIO_procNo = 518
APIO_procNo = 2182
APIO_procNo = 2950
writeThread 2950 on CPU 134
APIO_procNo = 1413
APIO_procNo = 389
writeThread 389 on CPU 133
APIO_procNo = 3974
APIO_procNo = 262
writeThread 262 on CPU 134
APIO_procNo = 1542
writeThread 1542 on CPU 134
APIO_procNo = 3845
writeThread 3845 on CPU 133
APIO_procNo = 3590
APIO_procNo = 2566
APIO_procNo = 1670
APIO_procNo = 1159
writeThread 1159 on CPU 135
APIO_procNo = 3207
APIO_procNo = 775
writeThread 775 on CPU 135
APIO_procNo = 3335
APIO_procNo = 3078
APIO_procNo = 902
writeThread 902 on CPU 134
APIO_procNo = 647
APIO_procNo = 2823
APIO_procNo = 3718
APIO_procNo = 3462
APIO_procNo = 135
APIO_procNo = 1799
APIO_procNo = 1031
APIO_procNo = 2311
APIO_procNo = 1287
APIO_procNo = 2695
APIO_procNo = 1927
APIO_procNo = 2439
APIO_procNo = 2054
APIO_procNo = 519
APIO_procNo = 2183
APIO_procNo = 2951
writeThread 2951 on CPU 135
APIO_procNo = 1414
APIO_procNo = 390
writeThread 390 on CPU 134
APIO_procNo = 3975
APIO_procNo = 263
writeThread 263 on CPU 135
APIO_procNo = 1543
writeThread 1543 on CPU 135
APIO_procNo = 3846
writeThread 3846 on CPU 134
APIO_procNo = 3591
writeThread 3591 on CPU 135
APIO_procNo = 2567
APIO_procNo = 1671
Courant Number mean: 1.03676563576042e-11 max: 2.085039370078742e-05
APIO_procNo = 1160
writeThread 1160 on CPU 136
APIO_procNo = 3208
APIO_procNo = 776
writeThread 776 on CPU 136
APIO_procNo = 3336
APIO_procNo = 3079
APIO_procNo = 903
APIO_procNo = 648
APIO_procNo = 2824
APIO_procNo = 3719
APIO_procNo = 3463
APIO_procNo = 136
APIO_procNo = 1800
APIO_procNo = 1032
APIO_procNo = 2312
APIO_procNo = 1288
APIO_procNo = 2696
APIO_procNo = 1928
APIO_procNo = 2440
APIO_procNo = 2055
writeThread 2055 on CPU 135
APIO_procNo = 520
APIO_procNo = 2184
writeThread 2184 on CPU 136
APIO_procNo = 2952
writeThread 2952 on CPU 136
APIO_procNo = 1415
APIO_procNo = 391
writeThread 391 on CPU 135
APIO_procNo = 3976
APIO_procNo = 264
writeThread 264 on CPU 136
APIO_procNo = 1544
writeThread 1544 on CPU 136
APIO_procNo = 3847
writeThread 3847 on CPU 135
APIO_procNo = 3592
writeThread 3592 on CPU 136
APIO_procNo = 2568
APIO_procNo = 1672
APIO_procNo = 1161
writeThread 1161 on CPU 137
APIO_procNo = 3209
APIO_procNo = 777
writeThread 777 on CPU 137
APIO_procNo = 3337
APIO_procNo = 3080
APIO_procNo = 904
APIO_procNo = 649
APIO_procNo = 2825
APIO_procNo = 3720
APIO_procNo = 3464
APIO_procNo = 137
APIO_procNo = 1801
APIO_procNo = 1033
APIO_procNo = 2313
APIO_procNo = 1289
APIO_procNo = 2697
APIO_procNo = 1929
writeThread 1929 on CPU 137
APIO_procNo = 2441
APIO_procNo = 2056
APIO_procNo = 521
APIO_procNo = 2185
APIO_procNo = 2953
writeThread 2953 on CPU 137
APIO_procNo = 1416
APIO_procNo = 392
writeThread 392 on CPU 136
APIO_procNo = 3977
APIO_procNo = 265
writeThread 265 on CPU 137
APIO_procNo = 1545
writeThread 1545 on CPU 137
APIO_procNo = 3848
writeThread 3848 on CPU 136
APIO_procNo = 3593
writeThread 3593 on CPU 137
APIO_procNo = 2569
APIO_procNo = 1673
APIO_procNo = 1162
writeThread 1162 on CPU 138
APIO_procNo = 3210
APIO_procNo = 778
writeThread 778 on CPU 138
APIO_procNo = 3338
APIO_procNo = 3081
APIO_procNo = 905
APIO_procNo = 650
APIO_procNo = 2826
APIO_procNo = 3721
APIO_procNo = 3465
APIO_procNo = 138
APIO_procNo = 1802
APIO_procNo = 1034
writeThread 1034 on CPU 138
APIO_procNo = 2314
APIO_procNo = 1290
APIO_procNo = 2698
APIO_procNo = 1930
APIO_procNo = 2442
APIO_procNo = 2057
APIO_procNo = 522
APIO_procNo = 2186
APIO_procNo = 2954
writeThread 2954 on CPU 138
APIO_procNo = 1417
APIO_procNo = 393
writeThread 393 on CPU 137
APIO_procNo = 3978
APIO_procNo = 266
writeThread 266 on CPU 138
APIO_procNo = 1546
writeThread 1546 on CPU 138
APIO_procNo = 3849
writeThread 3849 on CPU 137
APIO_procNo = 3594
writeThread 3594 on CPU 138
APIO_procNo = 2570
APIO_procNo = 1674
APIO_procNo = 1163
writeThread 1163 on CPU 139
APIO_procNo = 3211
APIO_procNo = 779
writeThread 779 on CPU 139
APIO_procNo = 3339
writeThread 3339 on CPU 139
APIO_procNo = 3082
APIO_procNo = 906
APIO_procNo = 651
APIO_procNo = 2827
APIO_procNo = 3722
APIO_procNo = 3466
APIO_procNo = 139
APIO_procNo = 1803
APIO_procNo = 1035
writeThread 1035 on CPU 139
APIO_procNo = 2315
APIO_procNo = 1291
APIO_procNo = 2699
APIO_procNo = 1931
APIO_procNo = 2443
APIO_procNo = 2058
APIO_procNo = 523
APIO_procNo = 2187
APIO_procNo = 2955
writeThread 2955 on CPU 139
APIO_procNo = 1418
APIO_procNo = 394
writeThread 394 on CPU 138
APIO_procNo = 3979
APIO_procNo = 267
writeThread 267 on CPU 139
APIO_procNo = 1547
writeThread 1547 on CPU 139
APIO_procNo = 3850
writeThread 3850 on CPU 138
APIO_procNo = 3595
writeThread 3595 on CPU 139
APIO_procNo = 2571
APIO_procNo = 1675
APIO_procNo = 1164
writeThread 1164 on CPU 140
APIO_procNo = 3212
APIO_procNo = 780
writeThread 780 on CPU 140
APIO_procNo = 3340
writeThread 3340 on CPU 140
APIO_procNo = 3083
APIO_procNo = 907
writeThread 907 on CPU 139
APIO_procNo = 652
APIO_procNo = 2828
APIO_procNo = 3723
APIO_procNo = 3467
APIO_procNo = 140
APIO_procNo = 1804
APIO_procNo = 1036
APIO_procNo = 2316
APIO_procNo = 1292
APIO_procNo = 2700
APIO_procNo = 1932
APIO_procNo = 2444
APIO_procNo = 2059
APIO_procNo = 524
APIO_procNo = 2188
APIO_procNo = 2956
writeThread 2956 on CPU 140
APIO_procNo = 1419
APIO_procNo = 395
writeThread 395 on CPU 139
APIO_procNo = 3980
writeThread 3980 on CPU 140
APIO_procNo = 268
writeThread 268 on CPU 140
APIO_procNo = 1548
writeThread 1548 on CPU 140
APIO_procNo = 3851
writeThread 3851 on CPU 139
APIO_procNo = 3596
writeThread 3596 on CPU 140
APIO_procNo = 2572
APIO_procNo = 1676
APIO_procNo = 1165
APIO_procNo = 3213
APIO_procNo = 781
writeThread 781 on CPU 141
APIO_procNo = 3341
writeThread 3341 on CPU 141
APIO_procNo = 3084
writeThread 3084 on CPU 140
APIO_procNo = 908
APIO_procNo = 653
APIO_procNo = 2829
APIO_procNo = 3724
APIO_procNo = 3468
APIO_procNo = 141
APIO_procNo = 1805
APIO_procNo = 1037
APIO_procNo = 2317
APIO_procNo = 1293
APIO_procNo = 2701
APIO_procNo = 1933
APIO_procNo = 2445
APIO_procNo = 2060
writeThread 2060 on CPU 140
APIO_procNo = 525
APIO_procNo = 2189
APIO_procNo = 2957
writeThread 2957 on CPU 141
APIO_procNo = 1420
writeThread 1420 on CPU 140
APIO_procNo = 396
writeThread 396 on CPU 140
APIO_procNo = 3981
APIO_procNo = 269
APIO_procNo = 1549
writeThread 1549 on CPU 141
APIO_procNo = 3852
writeThread 3852 on CPU 140
APIO_procNo = 3597
writeThread 3597 on CPU 141
APIO_procNo = 2573
APIO_procNo = 1677
APIO_procNo = 1166
APIO_procNo = 3214
APIO_procNo = 782
writeThread 782 on CPU 142
APIO_procNo = 3342
writeThread 3342 on CPU 142
APIO_procNo = 3085
writeThread 3085 on CPU 141
APIO_procNo = 909
APIO_procNo = 654
writeThread 654 on CPU 142
APIO_procNo = 2830
APIO_procNo = 3725
APIO_procNo = 3469
APIO_procNo = 142
APIO_procNo = 1806
APIO_procNo = 1038
APIO_procNo = 2318
APIO_procNo = 1294
APIO_procNo = 2702
APIO_procNo = 1934
APIO_procNo = 2446
APIO_procNo = 2061
writeThread 2061 on CPU 141
APIO_procNo = 526
APIO_procNo = 2190
APIO_procNo = 2958
writeThread 2958 on CPU 142
APIO_procNo = 1421
APIO_procNo = 397
writeThread 397 on CPU 141
APIO_procNo = 3982
APIO_procNo = 270
APIO_procNo = 1550
writeThread 1550 on CPU 142
APIO_procNo = 3853
writeThread 3853 on CPU 141
APIO_procNo = 3598
writeThread 3598 on CPU 142
APIO_procNo = 2574
APIO_procNo = 1678
APIO_procNo = 1167
APIO_procNo = 3215
APIO_procNo = 783
writeThread 783 on CPU 143
APIO_procNo = 3343
writeThread 3343 on CPU 143
APIO_procNo = 3086
writeThread 3086 on CPU 142
APIO_procNo = 910
writeThread 910 on CPU 142
APIO_procNo = 655
writeThread 655 on CPU 143
APIO_procNo = 2831
APIO_procNo = 3726
APIO_procNo = 3470
APIO_procNo = 143
APIO_procNo = 1807
APIO_procNo = 1039
APIO_procNo = 2319
APIO_procNo = 1295
APIO_procNo = 2703
APIO_procNo = 1935
APIO_procNo = 2447
APIO_procNo = 2062
writeThread 2062 on CPU 142
APIO_procNo = 527
APIO_procNo = 2191
APIO_procNo = 2959
writeThread 2959 on CPU 143
APIO_procNo = 1422
APIO_procNo = 398
writeThread 398 on CPU 142
APIO_procNo = 3983
APIO_procNo = 271
writeThread 271 on CPU 143
APIO_procNo = 1551
writeThread 1551 on CPU 143
APIO_procNo = 3854
writeThread 3854 on CPU 142
APIO_procNo = 3599
writeThread 3599 on CPU 143
APIO_procNo = 2575
APIO_procNo = 1679
APIO_procNo = 1168
writeThread 1168 on CPU 144
APIO_procNo = 3216
writeThread 3216 on CPU 144
APIO_procNo = 784
writeThread 784 on CPU 144
APIO_procNo = 3344
writeThread 3344 on CPU 144
APIO_procNo = 3087
writeThread 3087 on CPU 143
APIO_procNo = 911
APIO_procNo = 656
writeThread 656 on CPU 144
APIO_procNo = 2832
APIO_procNo = 3727
APIO_procNo = 3471
APIO_procNo = 144
writeThread 144 on CPU 144
APIO_procNo = 1808
writeThread 1808 on CPU 144
APIO_procNo = 1040
writeThread 1040 on CPU 144
APIO_procNo = 2320
APIO_procNo = 1296
writeThread 1296 on CPU 144
APIO_procNo = 2704
APIO_procNo = 1936
APIO_procNo = 2448
writeThread 2448 on CPU 144
APIO_procNo = 2063
writeThread 2063 on CPU 143
APIO_procNo = 528
APIO_procNo = 2192
writeThread 2192 on CPU 144
APIO_procNo = 2960
writeThread 2960 on CPU 144
APIO_procNo = 1423
APIO_procNo = 399
writeThread 399 on CPU 143
APIO_procNo = 3984
writeThread 3984 on CPU 144
APIO_procNo = 272
writeThread 272 on CPU 144
APIO_procNo = 1552
writeThread 1552 on CPU 144
APIO_procNo = 3855
writeThread 3855 on CPU 143
APIO_procNo = 3600
writeThread 3600 on CPU 144
APIO_procNo = 2576
writeThread 2576 on CPU 144
APIO_procNo = 1680
writeThread 1680 on CPU 144
APIO_procNo = 1169
writeThread 1169 on CPU 145
APIO_procNo = 3217
writeThread 3217 on CPU 145
APIO_procNo = 785
writeThread 785 on CPU 145
APIO_procNo = 3345
writeThread 3345 on CPU 145
APIO_procNo = 3088
APIO_procNo = 912
writeThread 912 on CPU 144
APIO_procNo = 657
writeThread 657 on CPU 145
APIO_procNo = 2833
APIO_procNo = 3728
writeThread 3728 on CPU 144
APIO_procNo = 3472
writeThread 3472 on CPU 144
APIO_procNo = 145
writeThread 145 on CPU 145
APIO_procNo = 1809
APIO_procNo = 1041
writeThread 1041 on CPU 145
APIO_procNo = 2321
APIO_procNo = 1297
writeThread 1297 on CPU 145
APIO_procNo = 2705
APIO_procNo = 1937
APIO_procNo = 2449
writeThread 2449 on CPU 145
APIO_procNo = 2064
APIO_procNo = 529
writeThread 529 on CPU 145
APIO_procNo = 2193
writeThread 2193 on CPU 145
APIO_procNo = 2961
writeThread 2961 on CPU 145
APIO_procNo = 1424
writeThread 1424 on CPU 144
APIO_procNo = 400
writeThread 400 on CPU 144
APIO_procNo = 3985
writeThread 3985 on CPU 145
APIO_procNo = 273
writeThread 273 on CPU 145
APIO_procNo = 1553
writeThread 1553 on CPU 145
APIO_procNo = 3856
writeThread 3856 on CPU 144
APIO_procNo = 3601
writeThread 3601 on CPU 145
APIO_procNo = 2577
writeThread 2577 on CPU 145
APIO_procNo = 1681
writeThread 1681 on CPU 145
APIO_procNo = 1170
writeThread 1170 on CPU 146
APIO_procNo = 3218
writeThread 3218 on CPU 146
APIO_procNo = 786
writeThread 786 on CPU 146
APIO_procNo = 3346
writeThread 3346 on CPU 146
APIO_procNo = 3089
writeThread 3089 on CPU 145
APIO_procNo = 913
writeThread 913 on CPU 145
APIO_procNo = 658
writeThread 658 on CPU 146
APIO_procNo = 2834
APIO_procNo = 3729
APIO_procNo = 3473
writeThread 3473 on CPU 145
APIO_procNo = 146
writeThread 146 on CPU 146
APIO_procNo = 1810
APIO_procNo = 1042
writeThread 1042 on CPU 146
APIO_procNo = 2322
APIO_procNo = 1298
writeThread 1298 on CPU 146
APIO_procNo = 2706
APIO_procNo = 1938
APIO_procNo = 2450
writeThread 2450 on CPU 146
APIO_procNo = 2065
APIO_procNo = 530
writeThread 530 on CPU 146
APIO_procNo = 2194
APIO_procNo = 2962
APIO_procNo = 1425
writeThread 1425 on CPU 145
APIO_procNo = 401
writeThread 401 on CPU 145
APIO_procNo = 3986
writeThread 3986 on CPU 146
APIO_procNo = 274
writeThread 274 on CPU 146
APIO_procNo = 1554
writeThread 1554 on CPU 146
APIO_procNo = 3857
writeThread 3857 on CPU 145
APIO_procNo = 3602
writeThread 3602 on CPU 146
APIO_procNo = 2578
writeThread 2578 on CPU 146
APIO_procNo = 1682
writeThread 1682 on CPU 146
APIO_procNo = 1171
writeThread 1171 on CPU 147
APIO_procNo = 3219
writeThread 3219 on CPU 147
APIO_procNo = 787
writeThread 787 on CPU 147
APIO_procNo = 3347
writeThread 3347 on CPU 147
APIO_procNo = 3090
writeThread 3090 on CPU 146
APIO_procNo = 914
writeThread 914 on CPU 146
APIO_procNo = 659
writeThread 659 on CPU 147
APIO_procNo = 2835
APIO_procNo = 3730
APIO_procNo = 3474
writeThread 3474 on CPU 146
APIO_procNo = 147
writeThread 147 on CPU 147
APIO_procNo = 1811
APIO_procNo = 1043
writeThread 1043 on CPU 147
APIO_procNo = 2323
APIO_procNo = 1299
writeThread 1299 on CPU 147
APIO_procNo = 2707
APIO_procNo = 1939
APIO_procNo = 2451
writeThread 2451 on CPU 147
APIO_procNo = 2066
APIO_procNo = 531
APIO_procNo = 2195
writeThread 2195 on CPU 147
APIO_procNo = 2963
writeThread 2963 on CPU 147
APIO_procNo = 1426
writeThread 1426 on CPU 146
APIO_procNo = 402
writeThread 402 on CPU 146
APIO_procNo = 3987
writeThread 3987 on CPU 147
APIO_procNo = 275
writeThread 275 on CPU 147
APIO_procNo = 1555
writeThread 1555 on CPU 147
APIO_procNo = 3858
writeThread 3858 on CPU 146
APIO_procNo = 3603
writeThread 3603 on CPU 147
APIO_procNo = 2579
writeThread 2579 on CPU 147
APIO_procNo = 1683
writeThread 1683 on CPU 147
APIO_procNo = 1172
writeThread 1172 on CPU 148
APIO_procNo = 3220
writeThread 3220 on CPU 148
APIO_procNo = 788
writeThread 788 on CPU 148
APIO_procNo = 3348
writeThread 3348 on CPU 148
APIO_procNo = 3091
writeThread 3091 on CPU 147
APIO_procNo = 915
writeThread 915 on CPU 147
APIO_procNo = 660
writeThread 660 on CPU 148
APIO_procNo = 2836
APIO_procNo = 3731
APIO_procNo = 3475
writeThread 3475 on CPU 147
APIO_procNo = 148
APIO_procNo = 1812
APIO_procNo = 1044
APIO_procNo = 2324
APIO_procNo = 1300
writeThread 1300 on CPU 148
APIO_procNo = 2708
APIO_procNo = 1940
writeThread 1940 on CPU 148
APIO_procNo = 2452
writeThread 2452 on CPU 148
APIO_procNo = 2067
writeThread 2067 on CPU 147
APIO_procNo = 532
APIO_procNo = 2196
writeThread 2196 on CPU 148
APIO_procNo = 2964
writeThread 2964 on CPU 148
APIO_procNo = 1427
writeThread 1427 on CPU 147
APIO_procNo = 403
writeThread 403 on CPU 147
APIO_procNo = 3988
APIO_procNo = 276
writeThread 276 on CPU 148
APIO_procNo = 1556
writeThread 1556 on CPU 148
APIO_procNo = 3859
APIO_procNo = 3604
writeThread 3604 on CPU 148
APIO_procNo = 2580
writeThread 2580 on CPU 148
APIO_procNo = 1684
writeThread 1684 on CPU 148
APIO_procNo = 1173
writeThread 1173 on CPU 149
APIO_procNo = 3221
writeThread 3221 on CPU 149
APIO_procNo = 789
writeThread 789 on CPU 149
APIO_procNo = 3349
writeThread 3349 on CPU 149
APIO_procNo = 3092
writeThread 3092 on CPU 148
APIO_procNo = 916
writeThread 916 on CPU 148
APIO_procNo = 661
writeThread 661 on CPU 149
APIO_procNo = 2837
APIO_procNo = 3732
APIO_procNo = 3476
writeThread 3476 on CPU 148
APIO_procNo = 149
writeThread 149 on CPU 149
APIO_procNo = 1813
APIO_procNo = 1045
APIO_procNo = 2325
writeThread 2325 on CPU 149
APIO_procNo = 1301
writeThread 1301 on CPU 149
APIO_procNo = 2709
APIO_procNo = 1941
APIO_procNo = 2453
writeThread 2453 on CPU 149
APIO_procNo = 2068
writeThread 2068 on CPU 148
APIO_procNo = 533
APIO_procNo = 2197
writeThread 2197 on CPU 149
APIO_procNo = 2965
writeThread 2965 on CPU 149
APIO_procNo = 1428
APIO_procNo = 404
writeThread 404 on CPU 148
APIO_procNo = 3989
APIO_procNo = 277
writeThread 277 on CPU 149
APIO_procNo = 1557
APIO_procNo = 3860
writeThread 3860 on CPU 148
APIO_procNo = 3605
writeThread 3605 on CPU 149
APIO_procNo = 2581
writeThread 2581 on CPU 149
APIO_procNo = 1685
writeThread 1685 on CPU 149
APIO_procNo = 1174
writeThread 1174 on CPU 150
APIO_procNo = 3222
writeThread 3222 on CPU 150
APIO_procNo = 790
writeThread 790 on CPU 150
APIO_procNo = 3350
writeThread 3350 on CPU 150
APIO_procNo = 3093
writeThread 3093 on CPU 149
APIO_procNo = 917
writeThread 917 on CPU 149
APIO_procNo = 662
writeThread 662 on CPU 150
APIO_procNo = 2838
APIO_procNo = 3733
APIO_procNo = 3477
writeThread 3477 on CPU 149
APIO_procNo = 150
writeThread 150 on CPU 150
APIO_procNo = 1814
APIO_procNo = 1046
APIO_procNo = 2326
APIO_procNo = 1302
writeThread 1302 on CPU 150
APIO_procNo = 2710
APIO_procNo = 1942
APIO_procNo = 2454
writeThread 2454 on CPU 150
APIO_procNo = 2069
writeThread 2069 on CPU 149
APIO_procNo = 534
APIO_procNo = 2198
writeThread 2198 on CPU 150
APIO_procNo = 2966
writeThread 2966 on CPU 150
APIO_procNo = 1429
APIO_procNo = 405
writeThread 405 on CPU 149
APIO_procNo = 3990
APIO_procNo = 278
writeThread 278 on CPU 150
APIO_procNo = 1558
APIO_procNo = 3861
writeThread 3861 on CPU 149
APIO_procNo = 3606
writeThread 3606 on CPU 150
APIO_procNo = 2582
writeThread 2582 on CPU 150
APIO_procNo = 1686
writeThread 1686 on CPU 150
APIO_procNo = 1175
writeThread 1175 on CPU 151
APIO_procNo = 3223
writeThread 3223 on CPU 151
APIO_procNo = 791
writeThread 791 on CPU 151
APIO_procNo = 3351
writeThread 3351 on CPU 151
APIO_procNo = 3094
writeThread 3094 on CPU 150
APIO_procNo = 918
writeThread 918 on CPU 150
APIO_procNo = 663
writeThread 663 on CPU 151
APIO_procNo = 2839
APIO_procNo = 3734
APIO_procNo = 3478
writeThread 3478 on CPU 150
APIO_procNo = 151
writeThread 151 on CPU 151
APIO_procNo = 1815
APIO_procNo = 1047
APIO_procNo = 2327
APIO_procNo = 1303
writeThread 1303 on CPU 151
APIO_procNo = 2711
APIO_procNo = 1943
APIO_procNo = 2455
writeThread 2455 on CPU 151
APIO_procNo = 2070
writeThread 2070 on CPU 150
APIO_procNo = 535
APIO_procNo = 2199
writeThread 2199 on CPU 151
APIO_procNo = 2967
writeThread 2967 on CPU 151
APIO_procNo = 1430
writeThread 1430 on CPU 150
APIO_procNo = 406
writeThread 406 on CPU 150
APIO_procNo = 3991
APIO_procNo = 279
writeThread 279 on CPU 151
APIO_procNo = 1559
APIO_procNo = 3862
writeThread 3862 on CPU 150
APIO_procNo = 3607
writeThread 3607 on CPU 151
APIO_procNo = 2583
APIO_procNo = 1687
writeThread 1687 on CPU 151
APIO_procNo = 1176
writeThread 1176 on CPU 152
APIO_procNo = 3224
writeThread 3224 on CPU 152
APIO_procNo = 792
writeThread 792 on CPU 152
APIO_procNo = 3352
writeThread 3352 on CPU 152
APIO_procNo = 3095
writeThread 3095 on CPU 151
APIO_procNo = 919
writeThread 919 on CPU 151
APIO_procNo = 664
writeThread 664 on CPU 152
APIO_procNo = 2840
APIO_procNo = 3735
APIO_procNo = 3479
writeThread 3479 on CPU 151
APIO_procNo = 152
writeThread 152 on CPU 152
APIO_procNo = 1816
APIO_procNo = 1048
APIO_procNo = 2328
APIO_procNo = 1304
writeThread 1304 on CPU 152
APIO_procNo = 2712
writeThread 2712 on CPU 152
APIO_procNo = 1944
APIO_procNo = 2456
writeThread 2456 on CPU 152
APIO_procNo = 2071
writeThread 2071 on CPU 151
APIO_procNo = 536
APIO_procNo = 2200
writeThread 2200 on CPU 152
APIO_procNo = 2968
writeThread 2968 on CPU 152
APIO_procNo = 1431
APIO_procNo = 407
writeThread 407 on CPU 151
APIO_procNo = 3992
APIO_procNo = 280
writeThread 280 on CPU 152
APIO_procNo = 1560
writeThread 1560 on CPU 152
APIO_procNo = 3863
writeThread 3863 on CPU 151
APIO_procNo = 3608
writeThread 3608 on CPU 152
APIO_procNo = 2584
writeThread 2584 on CPU 152
APIO_procNo = 1688
writeThread 1688 on CPU 152

Starting time loop

APIO_procNo = 1177
writeThread 1177 on CPU 153
APIO_procNo = 3225
writeThread 3225 on CPU 153
APIO_procNo = 793
writeThread 793 on CPU 153
APIO_procNo = 3353
writeThread 3353 on CPU 153
APIO_procNo = 3096
writeThread 3096 on CPU 152
APIO_procNo = 920
writeThread 920 on CPU 152
APIO_procNo = 665
writeThread 665 on CPU 153
APIO_procNo = 2841
APIO_procNo = 3736
writeThread 3736 on CPU 152
APIO_procNo = 3480
writeThread 3480 on CPU 152
APIO_procNo = 153
writeThread 153 on CPU 153
APIO_procNo = 1817
APIO_procNo = 1049
APIO_procNo = 2329
APIO_procNo = 1305
APIO_procNo = 2713
APIO_procNo = 1945
APIO_procNo = 2457
writeThread 2457 on CPU 153
APIO_procNo = 2072
writeThread 2072 on CPU 152
APIO_procNo = 537
APIO_procNo = 2201
writeThread 2201 on CPU 153
APIO_procNo = 2969
writeThread 2969 on CPU 153
APIO_procNo = 1432
APIO_procNo = 408
writeThread 408 on CPU 152
APIO_procNo = 3993
APIO_procNo = 281
writeThread 281 on CPU 153
APIO_procNo = 1561
writeThread 1561 on CPU 153
APIO_procNo = 3864
writeThread 3864 on CPU 152
APIO_procNo = 3609
writeThread 3609 on CPU 153
APIO_procNo = 2585
writeThread 2585 on CPU 153
APIO_procNo = 1689
writeThread 1689 on CPU 153
APIO_procNo = 1178
writeThread 1178 on CPU 154
APIO_procNo = 3226
writeThread 3226 on CPU 154
APIO_procNo = 794
writeThread 794 on CPU 154
APIO_procNo = 3354
writeThread 3354 on CPU 154
APIO_procNo = 3097
writeThread 3097 on CPU 153
APIO_procNo = 921
writeThread 921 on CPU 153
APIO_procNo = 666
writeThread 666 on CPU 154
APIO_procNo = 2842
APIO_procNo = 3737
writeThread 3737 on CPU 153
APIO_procNo = 3481
writeThread 3481 on CPU 153
APIO_procNo = 154
writeThread 154 on CPU 154
APIO_procNo = 1818
APIO_procNo = 1050
APIO_procNo = 2330
APIO_procNo = 1306
writeThread 1306 on CPU 154
APIO_procNo = 2714
APIO_procNo = 1946
APIO_procNo = 2458
writeThread 2458 on CPU 154
APIO_procNo = 2073
writeThread 2073 on CPU 153
APIO_procNo = 538
APIO_procNo = 2202
writeThread 2202 on CPU 154
APIO_procNo = 2970
writeThread 2970 on CPU 154
APIO_procNo = 1433
APIO_procNo = 409
writeThread 409 on CPU 153
APIO_procNo = 3994
APIO_procNo = 282
writeThread 282 on CPU 154
APIO_procNo = 1562
writeThread 1562 on CPU 154
APIO_procNo = 3865
writeThread 3865 on CPU 153
APIO_procNo = 3610
writeThread 3610 on CPU 154
APIO_procNo = 2586
writeThread 2586 on CPU 154
APIO_procNo = 1690
writeThread 1690 on CPU 154
APIO_procNo = 1179
writeThread 1179 on CPU 155
APIO_procNo = 3227
writeThread 3227 on CPU 155
APIO_procNo = 795
writeThread 795 on CPU 155
APIO_procNo = 3355
writeThread 3355 on CPU 155
APIO_procNo = 3098
writeThread 3098 on CPU 154
APIO_procNo = 922
writeThread 922 on CPU 154
APIO_procNo = 667
writeThread 667 on CPU 155
APIO_procNo = 2843
APIO_procNo = 3738
writeThread 3738 on CPU 154
APIO_procNo = 3482
writeThread 3482 on CPU 154
APIO_procNo = 155
writeThread 155 on CPU 155
APIO_procNo = 1819
APIO_procNo = 1051
APIO_procNo = 2331
APIO_procNo = 1307
APIO_procNo = 2715
APIO_procNo = 1947
APIO_procNo = 2459
APIO_procNo = 2074
writeThread 2074 on CPU 154
APIO_procNo = 539
APIO_procNo = 2203
writeThread 2203 on CPU 155
APIO_procNo = 2971
writeThread 2971 on CPU 155
APIO_procNo = 1434
APIO_procNo = 410
writeThread 410 on CPU 154
APIO_procNo = 3995
APIO_procNo = 283
writeThread 283 on CPU 155
APIO_procNo = 1563
writeThread 1563 on CPU 155
APIO_procNo = 3866
writeThread 3866 on CPU 154
APIO_procNo = 3611
writeThread 3611 on CPU 155
APIO_procNo = 2587
writeThread 2587 on CPU 155
APIO_procNo = 1691
writeThread 1691 on CPU 155
APIO_procNo = 1180
writeThread 1180 on CPU 156
APIO_procNo = 3228
writeThread 3228 on CPU 156
APIO_procNo = 796
writeThread 796 on CPU 156
APIO_procNo = 3356
writeThread 3356 on CPU 156
APIO_procNo = 3099
writeThread 3099 on CPU 155
APIO_procNo = 923
writeThread 923 on CPU 155
APIO_procNo = 668
writeThread 668 on CPU 156
APIO_procNo = 2844
APIO_procNo = 3739
writeThread 3739 on CPU 155
APIO_procNo = 3483
writeThread 3483 on CPU 155
APIO_procNo = 156
writeThread 156 on CPU 156
APIO_procNo = 1820
writeThread 1820 on CPU 156
APIO_procNo = 1052
APIO_procNo = 2332
APIO_procNo = 1308
writeThread 1308 on CPU 156
APIO_procNo = 2716
APIO_procNo = 1948
APIO_procNo = 2460
APIO_procNo = 2075
writeThread 2075 on CPU 155
APIO_procNo = 540
APIO_procNo = 2204
APIO_procNo = 2972
writeThread 2972 on CPU 156
APIO_procNo = 1435
APIO_procNo = 411
writeThread 411 on CPU 155
APIO_procNo = 3996
APIO_procNo = 284
writeThread 284 on CPU 156
APIO_procNo = 1564
writeThread 1564 on CPU 156
APIO_procNo = 3867
writeThread 3867 on CPU 155
APIO_procNo = 3612
writeThread 3612 on CPU 156
APIO_procNo = 2588
writeThread 2588 on CPU 156
APIO_procNo = 1692
writeThread 1692 on CPU 156
APIO_procNo = 1181
writeThread 1181 on CPU 157
APIO_procNo = 3229
writeThread 3229 on CPU 157
APIO_procNo = 797
writeThread 797 on CPU 157
APIO_procNo = 3357
writeThread 3357 on CPU 157
APIO_procNo = 3100
writeThread 3100 on CPU 156
APIO_procNo = 924
writeThread 924 on CPU 156
APIO_procNo = 669
writeThread 669 on CPU 157
APIO_procNo = 2845
writeThread 2845 on CPU 157
APIO_procNo = 3740
APIO_procNo = 3484
writeThread 3484 on CPU 156
APIO_procNo = 157
writeThread 157 on CPU 157
APIO_procNo = 1821
writeThread 1821 on CPU 157
APIO_procNo = 1053
writeThread 1053 on CPU 157
APIO_procNo = 2333
APIO_procNo = 1309
writeThread 1309 on CPU 157
APIO_procNo = 2717
APIO_procNo = 1949
APIO_procNo = 2461
APIO_procNo = 2076
writeThread 2076 on CPU 156
APIO_procNo = 541
APIO_procNo = 2205
APIO_procNo = 2973
writeThread 2973 on CPU 157
APIO_procNo = 1436
writeThread 1436 on CPU 156
APIO_procNo = 412
writeThread 412 on CPU 156
APIO_procNo = 3997
APIO_procNo = 285
writeThread 285 on CPU 157
APIO_procNo = 1565
writeThread 1565 on CPU 157
APIO_procNo = 3868
writeThread 3868 on CPU 156
APIO_procNo = 3613
writeThread 3613 on CPU 157
APIO_procNo = 2589
writeThread 2589 on CPU 157
APIO_procNo = 1693
writeThread 1693 on CPU 157
Courant Number mean: 1.03676563576042e-11 max: 2.085039370078742e-05
deltaT = 1.2e-09
Time = 1.2e-09

PIMPLE: iteration 1
APIO_procNo = 1182
writeThread 1182 on CPU 158
APIO_procNo = 3230
writeThread 3230 on CPU 158
APIO_procNo = 798
writeThread 798 on CPU 158
APIO_procNo = 3358
writeThread 3358 on CPU 158
APIO_procNo = 3101
writeThread 3101 on CPU 157
APIO_procNo = 925
writeThread 925 on CPU 157
APIO_procNo = 670
APIO_procNo = 2846
APIO_procNo = 3741
APIO_procNo = 3485
writeThread 3485 on CPU 157
APIO_procNo = 158
writeThread 158 on CPU 158
APIO_procNo = 1822
APIO_procNo = 1054
APIO_procNo = 2334
APIO_procNo = 1310
writeThread 1310 on CPU 158
APIO_procNo = 2718
APIO_procNo = 1950
APIO_procNo = 2462
APIO_procNo = 2077
writeThread 2077 on CPU 157
APIO_procNo = 542
APIO_procNo = 2206
APIO_procNo = 2974
writeThread 2974 on CPU 158
APIO_procNo = 1437
writeThread 1437 on CPU 157
APIO_procNo = 413
writeThread 413 on CPU 157
APIO_procNo = 3998
APIO_procNo = 286
writeThread 286 on CPU 158
APIO_procNo = 1566
writeThread 1566 on CPU 158
APIO_procNo = 3869
writeThread 3869 on CPU 157
APIO_procNo = 3614
writeThread 3614 on CPU 158
APIO_procNo = 2590
writeThread 2590 on CPU 158
APIO_procNo = 1694
writeThread 1694 on CPU 158
APIO_procNo = 1183
writeThread 1183 on CPU 159
APIO_procNo = 3231
writeThread 3231 on CPU 159
APIO_procNo = 799
writeThread 799 on CPU 159
APIO_procNo = 3359
writeThread 3359 on CPU 159
APIO_procNo = 3102
writeThread 3102 on CPU 158
APIO_procNo = 926
writeThread 926 on CPU 158
APIO_procNo = 671
writeThread 671 on CPU 159
APIO_procNo = 2847
APIO_procNo = 3742
APIO_procNo = 3486
writeThread 3486 on CPU 158
APIO_procNo = 159
writeThread 159 on CPU 159
APIO_procNo = 1823
APIO_procNo = 1055
APIO_procNo = 2335
APIO_procNo = 1311
writeThread 1311 on CPU 159
APIO_procNo = 2719
APIO_procNo = 1951
APIO_procNo = 2463
APIO_procNo = 2078
APIO_procNo = 543
APIO_procNo = 2207
APIO_procNo = 2975
writeThread 2975 on CPU 159
APIO_procNo = 1438
APIO_procNo = 414
writeThread 414 on CPU 158
APIO_procNo = 3999
APIO_procNo = 287
writeThread 287 on CPU 159
APIO_procNo = 1567
writeThread 1567 on CPU 159
APIO_procNo = 3870
writeThread 3870 on CPU 158
APIO_procNo = 3615
writeThread 3615 on CPU 159
APIO_procNo = 2591
writeThread 2591 on CPU 159
APIO_procNo = 1695
writeThread 1695 on CPU 159
diagonal:  Solving for rho, Initial residual = 0, Final residual = 0, No Iterations 0
APIO_procNo = 1184
APIO_procNo = 3232
writeThread 3232 on CPU 160
APIO_procNo = 800
writeThread 800 on CPU 160
APIO_procNo = 3360
writeThread 3360 on CPU 160
APIO_procNo = 3103
writeThread 3103 on CPU 159
APIO_procNo = 927
writeThread 927 on CPU 159
APIO_procNo = 672
writeThread 672 on CPU 160
APIO_procNo = 2848
APIO_procNo = 3743
APIO_procNo = 3487
writeThread 3487 on CPU 159
APIO_procNo = 160
writeThread 160 on CPU 160
APIO_procNo = 1824
APIO_procNo = 1056
APIO_procNo = 2336
writeThread 2336 on CPU 160
APIO_procNo = 1312
APIO_procNo = 2720
writeThread 2720 on CPU 160
APIO_procNo = 1952
APIO_procNo = 2464
writeThread 2464 on CPU 160
APIO_procNo = 2079
APIO_procNo = 544
APIO_procNo = 2208
writeThread 2208 on CPU 160
APIO_procNo = 2976
writeThread 2976 on CPU 160
APIO_procNo = 1439
APIO_procNo = 415
writeThread 415 on CPU 159
APIO_procNo = 4000
writeThread 4000 on CPU 160
APIO_procNo = 288
writeThread 288 on CPU 160
APIO_procNo = 1568
APIO_procNo = 3871
writeThread 3871 on CPU 159
APIO_procNo = 3616
writeThread 3616 on CPU 160
APIO_procNo = 2592
writeThread 2592 on CPU 160
APIO_procNo = 1696
writeThread 1696 on CPU 160
APIO_procNo = 1185
APIO_procNo = 3233
writeThread 3233 on CPU 161
APIO_procNo = 801
writeThread 801 on CPU 161
APIO_procNo = 3361
writeThread 3361 on CPU 161
APIO_procNo = 3104
writeThread 3104 on CPU 160
APIO_procNo = 928
writeThread 928 on CPU 160
APIO_procNo = 673
writeThread 673 on CPU 161
APIO_procNo = 2849
APIO_procNo = 3744
writeThread 3744 on CPU 160
APIO_procNo = 3488
writeThread 3488 on CPU 160
APIO_procNo = 161
writeThread 161 on CPU 161
APIO_procNo = 1825
writeThread 1825 on CPU 161
APIO_procNo = 1057
writeThread 1057 on CPU 161
APIO_procNo = 2337
writeThread 2337 on CPU 161
APIO_procNo = 1313
APIO_procNo = 2721
writeThread 2721 on CPU 161
APIO_procNo = 1953
APIO_procNo = 2465
APIO_procNo = 2080
writeThread 2080 on CPU 160
APIO_procNo = 545
writeThread 545 on CPU 161
APIO_procNo = 2209
writeThread 2209 on CPU 161
APIO_procNo = 2977
writeThread 2977 on CPU 161
APIO_procNo = 1440
writeThread 1440 on CPU 160
APIO_procNo = 416
writeThread 416 on CPU 160
APIO_procNo = 4001
writeThread 4001 on CPU 161
APIO_procNo = 289
writeThread 289 on CPU 161
APIO_procNo = 1569
APIO_procNo = 3872
writeThread 3872 on CPU 160
APIO_procNo = 3617
writeThread 3617 on CPU 161
APIO_procNo = 2593
writeThread 2593 on CPU 161
APIO_procNo = 1697
writeThread 1697 on CPU 161
APIO_procNo = 1186
APIO_procNo = 3234
writeThread 3234 on CPU 162
APIO_procNo = 802
writeThread 802 on CPU 162
APIO_procNo = 3362
writeThread 3362 on CPU 162
APIO_procNo = 3105
writeThread 3105 on CPU 161
APIO_procNo = 929
writeThread 929 on CPU 161
APIO_procNo = 674
writeThread 674 on CPU 162
APIO_procNo = 2850
APIO_procNo = 3745
writeThread 3745 on CPU 161
APIO_procNo = 3489
writeThread 3489 on CPU 161
APIO_procNo = 162
writeThread 162 on CPU 162
APIO_procNo = 1826
writeThread 1826 on CPU 162
APIO_procNo = 1058
writeThread 1058 on CPU 162
APIO_procNo = 2338
writeThread 2338 on CPU 162
APIO_procNo = 1314
writeThread 1314 on CPU 162
APIO_procNo = 2722
writeThread 2722 on CPU 162
APIO_procNo = 1954
APIO_procNo = 2466
APIO_procNo = 2081
writeThread 2081 on CPU 161
APIO_procNo = 546
writeThread 546 on CPU 162
APIO_procNo = 2210
writeThread 2210 on CPU 162
APIO_procNo = 2978
writeThread 2978 on CPU 162
APIO_procNo = 1441
writeThread 1441 on CPU 161
APIO_procNo = 417
writeThread 417 on CPU 161
APIO_procNo = 4002
writeThread 4002 on CPU 162
APIO_procNo = 290
writeThread 290 on CPU 162
APIO_procNo = 1570
APIO_procNo = 3873
writeThread 3873 on CPU 161
APIO_procNo = 3618
writeThread 3618 on CPU 162
APIO_procNo = 2594
writeThread 2594 on CPU 162
APIO_procNo = 1698
writeThread 1698 on CPU 162
APIO_procNo = 1187
APIO_procNo = 3235
writeThread 3235 on CPU 163
APIO_procNo = 803
writeThread 803 on CPU 163
APIO_procNo = 3363
writeThread 3363 on CPU 163
APIO_procNo = 3106
writeThread 3106 on CPU 162
APIO_procNo = 930
writeThread 930 on CPU 162
APIO_procNo = 675
writeThread 675 on CPU 163
APIO_procNo = 2851
APIO_procNo = 3746
writeThread 3746 on CPU 162
APIO_procNo = 3490
writeThread 3490 on CPU 162
APIO_procNo = 163
writeThread 163 on CPU 163
APIO_procNo = 1827
writeThread 1827 on CPU 163
APIO_procNo = 1059
writeThread 1059 on CPU 163
APIO_procNo = 2339
writeThread 2339 on CPU 163
APIO_procNo = 1315
writeThread 1315 on CPU 163
APIO_procNo = 2723
writeThread 2723 on CPU 163
APIO_procNo = 1955
APIO_procNo = 2467
APIO_procNo = 2082
writeThread 2082 on CPU 162
APIO_procNo = 547
writeThread 547 on CPU 163
APIO_procNo = 2211
writeThread 2211 on CPU 163
APIO_procNo = 2979
writeThread 2979 on CPU 163
APIO_procNo = 1442
writeThread 1442 on CPU 162
APIO_procNo = 418
writeThread 418 on CPU 162
APIO_procNo = 4003
APIO_procNo = 291
writeThread 291 on CPU 163
APIO_procNo = 1571
APIO_procNo = 3874
writeThread 3874 on CPU 162
APIO_procNo = 3619
writeThread 3619 on CPU 163
APIO_procNo = 2595
writeThread 2595 on CPU 163
APIO_procNo = 1699
writeThread 1699 on CPU 163
APIO_procNo = 1188
writeThread 1188 on CPU 164
APIO_procNo = 3236
writeThread 3236 on CPU 164
APIO_procNo = 804
writeThread 804 on CPU 164
APIO_procNo = 3364
writeThread 3364 on CPU 164
APIO_procNo = 3107
writeThread 3107 on CPU 163
APIO_procNo = 931
writeThread 931 on CPU 163
APIO_procNo = 676
APIO_procNo = 2852
APIO_procNo = 3747
writeThread 3747 on CPU 163
APIO_procNo = 3491
writeThread 3491 on CPU 163
APIO_procNo = 164
APIO_procNo = 1828
APIO_procNo = 1060
writeThread 1060 on CPU 164
APIO_procNo = 2340
writeThread 2340 on CPU 164
APIO_procNo = 1316
writeThread 1316 on CPU 164
APIO_procNo = 2724
writeThread 2724 on CPU 164
APIO_procNo = 1956
APIO_procNo = 2468
APIO_procNo = 2083
writeThread 2083 on CPU 163
APIO_procNo = 548
APIO_procNo = 2212
APIO_procNo = 2980
writeThread 2980 on CPU 164
APIO_procNo = 1443
writeThread 1443 on CPU 163
APIO_procNo = 419
writeThread 419 on CPU 163
APIO_procNo = 4004
writeThread 4004 on CPU 164
APIO_procNo = 292
writeThread 292 on CPU 164
APIO_procNo = 1572
writeThread 1572 on CPU 164
APIO_procNo = 3875
writeThread 3875 on CPU 163
APIO_procNo = 3620
APIO_procNo = 2596
writeThread 2596 on CPU 164
APIO_procNo = 1700
writeThread 1700 on CPU 164
APIO_procNo = 1189
writeThread 1189 on CPU 165
APIO_procNo = 3237
writeThread 3237 on CPU 165
APIO_procNo = 805
writeThread 805 on CPU 165
APIO_procNo = 3365
writeThread 3365 on CPU 165
APIO_procNo = 3108
writeThread 3108 on CPU 164
APIO_procNo = 932
writeThread 932 on CPU 164
APIO_procNo = 677
APIO_procNo = 2853
APIO_procNo = 3748
writeThread 3748 on CPU 164
APIO_procNo = 3492
writeThread 3492 on CPU 164
APIO_procNo = 165
writeThread 165 on CPU 165
APIO_procNo = 1829
APIO_procNo = 1061
writeThread 1061 on CPU 165
APIO_procNo = 2341
writeThread 2341 on CPU 165
APIO_procNo = 1317
writeThread 1317 on CPU 165
APIO_procNo = 2725
writeThread 2725 on CPU 165
APIO_procNo = 1957
APIO_procNo = 2469
APIO_procNo = 2084
writeThread 2084 on CPU 164
APIO_procNo = 549
APIO_procNo = 2213
APIO_procNo = 2981
writeThread 2981 on CPU 165
APIO_procNo = 1444
writeThread 1444 on CPU 164
APIO_procNo = 420
writeThread 420 on CPU 164
APIO_procNo = 4005
writeThread 4005 on CPU 165
APIO_procNo = 293
writeThread 293 on CPU 165
APIO_procNo = 1573
writeThread 1573 on CPU 165
APIO_procNo = 3876
writeThread 3876 on CPU 164
APIO_procNo = 3621
writeThread 3621 on CPU 165
APIO_procNo = 2597
writeThread 2597 on CPU 165
APIO_procNo = 1701
writeThread 1701 on CPU 165
APIO_procNo = 1190
writeThread 1190 on CPU 166
APIO_procNo = 3238
writeThread 3238 on CPU 166
APIO_procNo = 806
writeThread 806 on CPU 166
APIO_procNo = 3366
writeThread 3366 on CPU 166
APIO_procNo = 3109
writeThread 3109 on CPU 165
APIO_procNo = 933
writeThread 933 on CPU 165
APIO_procNo = 678
APIO_procNo = 2854
APIO_procNo = 3749
writeThread 3749 on CPU 165
APIO_procNo = 3493
writeThread 3493 on CPU 165
APIO_procNo = 166
APIO_procNo = 1830
APIO_procNo = 1062
writeThread 1062 on CPU 166
APIO_procNo = 2342
writeThread 2342 on CPU 166
APIO_procNo = 1318
writeThread 1318 on CPU 166
APIO_procNo = 2726
writeThread 2726 on CPU 166
APIO_procNo = 1958
APIO_procNo = 2470
APIO_procNo = 2085
writeThread 2085 on CPU 165
APIO_procNo = 550
APIO_procNo = 2214
APIO_procNo = 2982
writeThread 2982 on CPU 166
APIO_procNo = 1445
writeThread 1445 on CPU 165
APIO_procNo = 421
writeThread 421 on CPU 165
APIO_procNo = 4006
writeThread 4006 on CPU 166
APIO_procNo = 294
writeThread 294 on CPU 166
APIO_procNo = 1574
writeThread 1574 on CPU 166
APIO_procNo = 3877
writeThread 3877 on CPU 165
APIO_procNo = 3622
writeThread 3622 on CPU 166
APIO_procNo = 2598
writeThread 2598 on CPU 166
APIO_procNo = 1702
writeThread 1702 on CPU 166
APIO_procNo = 1191
writeThread 1191 on CPU 167
APIO_procNo = 3239
writeThread 3239 on CPU 167
APIO_procNo = 807
writeThread 807 on CPU 167
APIO_procNo = 3367
writeThread 3367 on CPU 167
APIO_procNo = 3110
writeThread 3110 on CPU 166
APIO_procNo = 934
writeThread 934 on CPU 166
APIO_procNo = 679
APIO_procNo = 2855
APIO_procNo = 3750
writeThread 3750 on CPU 166
APIO_procNo = 3494
writeThread 3494 on CPU 166
APIO_procNo = 167
APIO_procNo = 1831
APIO_procNo = 1063
writeThread 1063 on CPU 167
APIO_procNo = 2343
writeThread 2343 on CPU 167
APIO_procNo = 1319
writeThread 1319 on CPU 167
APIO_procNo = 2727
writeThread 2727 on CPU 167
APIO_procNo = 1959
writeThread 1959 on CPU 167
APIO_procNo = 2471
APIO_procNo = 2086
writeThread 2086 on CPU 166
APIO_procNo = 551
APIO_procNo = 2215
APIO_procNo = 2983
writeThread 2983 on CPU 167
APIO_procNo = 1446
writeThread 1446 on CPU 166
APIO_procNo = 422
writeThread 422 on CPU 166
APIO_procNo = 4007
writeThread 4007 on CPU 167
APIO_procNo = 295
writeThread 295 on CPU 167
APIO_procNo = 1575
writeThread 1575 on CPU 167
APIO_procNo = 3878
writeThread 3878 on CPU 166
APIO_procNo = 3623
writeThread 3623 on CPU 167
APIO_procNo = 2599
writeThread 2599 on CPU 167
APIO_procNo = 1703
writeThread 1703 on CPU 167
APIO_procNo = 1192
APIO_procNo = 3240
writeThread 3240 on CPU 168
APIO_procNo = 808
writeThread 808 on CPU 168
APIO_procNo = 3368
writeThread 3368 on CPU 168
APIO_procNo = 3111
writeThread 3111 on CPU 167
APIO_procNo = 935
writeThread 935 on CPU 167
APIO_procNo = 680
APIO_procNo = 2856
APIO_procNo = 3751
writeThread 3751 on CPU 167
APIO_procNo = 3495
writeThread 3495 on CPU 167
APIO_procNo = 168
writeThread 168 on CPU 168
APIO_procNo = 1832
APIO_procNo = 1064
writeThread 1064 on CPU 168
APIO_procNo = 2344
writeThread 2344 on CPU 168
APIO_procNo = 1320
writeThread 1320 on CPU 168
APIO_procNo = 2728
writeThread 2728 on CPU 168
APIO_procNo = 1960
APIO_procNo = 2472
APIO_procNo = 2087
writeThread 2087 on CPU 167
APIO_procNo = 552
APIO_procNo = 2216
APIO_procNo = 2984
writeThread 2984 on CPU 168
APIO_procNo = 1447
writeThread 1447 on CPU 167
APIO_procNo = 423
writeThread 423 on CPU 167
APIO_procNo = 4008
writeThread 4008 on CPU 168
APIO_procNo = 296
writeThread 296 on CPU 168
APIO_procNo = 1576
APIO_procNo = 3879
writeThread 3879 on CPU 167
APIO_procNo = 3624
writeThread 3624 on CPU 168
APIO_procNo = 2600
writeThread 2600 on CPU 168
APIO_procNo = 1704
writeThread 1704 on CPU 168
APIO_procNo = 1193
APIO_procNo = 3241
writeThread 3241 on CPU 169
APIO_procNo = 809
writeThread 809 on CPU 169
APIO_procNo = 3369
writeThread 3369 on CPU 169
APIO_procNo = 3112
writeThread 3112 on CPU 168
APIO_procNo = 936
writeThread 936 on CPU 168
APIO_procNo = 681
APIO_procNo = 2857
APIO_procNo = 3752
writeThread 3752 on CPU 168
APIO_procNo = 3496
writeThread 3496 on CPU 168
APIO_procNo = 169
writeThread 169 on CPU 169
APIO_procNo = 1833
APIO_procNo = 1065
writeThread 1065 on CPU 169
APIO_procNo = 2345
writeThread 2345 on CPU 169
APIO_procNo = 1321
writeThread 1321 on CPU 169
APIO_procNo = 2729
writeThread 2729 on CPU 169
APIO_procNo = 1961
APIO_procNo = 2473
APIO_procNo = 2088
writeThread 2088 on CPU 168
APIO_procNo = 553
writeThread 553 on CPU 169
APIO_procNo = 2217
APIO_procNo = 2985
writeThread 2985 on CPU 169
APIO_procNo = 1448
writeThread 1448 on CPU 168
APIO_procNo = 424
writeThread 424 on CPU 168
APIO_procNo = 4009
writeThread 4009 on CPU 169
APIO_procNo = 297
writeThread 297 on CPU 169
APIO_procNo = 1577
writeThread 1577 on CPU 169
APIO_procNo = 3880
writeThread 3880 on CPU 168
APIO_procNo = 3625
writeThread 3625 on CPU 169
APIO_procNo = 2601
writeThread 2601 on CPU 169
APIO_procNo = 1705
writeThread 1705 on CPU 169
APIO_procNo = 1194
APIO_procNo = 3242
writeThread 3242 on CPU 170
APIO_procNo = 810
writeThread 810 on CPU 170
APIO_procNo = 3370
writeThread 3370 on CPU 170
APIO_procNo = 3113
writeThread 3113 on CPU 169
APIO_procNo = 937
writeThread 937 on CPU 169
APIO_procNo = 682
writeThread 682 on CPU 170
APIO_procNo = 2858
APIO_procNo = 3753
APIO_procNo = 3497
writeThread 3497 on CPU 169
APIO_procNo = 170
writeThread 170 on CPU 170
APIO_procNo = 1834
APIO_procNo = 1066
writeThread 1066 on CPU 170
APIO_procNo = 2346
writeThread 2346 on CPU 170
APIO_procNo = 1322
writeThread 1322 on CPU 170
APIO_procNo = 2730
writeThread 2730 on CPU 170
APIO_procNo = 1962
APIO_procNo = 2474
APIO_procNo = 2089
writeThread 2089 on CPU 169
APIO_procNo = 554
APIO_procNo = 2218
APIO_procNo = 2986
writeThread 2986 on CPU 170
APIO_procNo = 1449
writeThread 1449 on CPU 169
APIO_procNo = 425
writeThread 425 on CPU 169
APIO_procNo = 4010
writeThread 4010 on CPU 170
APIO_procNo = 298
writeThread 298 on CPU 170
APIO_procNo = 1578
APIO_procNo = 3881
writeThread 3881 on CPU 169
APIO_procNo = 3626
writeThread 3626 on CPU 170
APIO_procNo = 2602
writeThread 2602 on CPU 170
APIO_procNo = 1706
writeThread 1706 on CPU 170
APIO_procNo = 1195
APIO_procNo = 3243
APIO_procNo = 811
writeThread 811 on CPU 171
APIO_procNo = 3371
writeThread 3371 on CPU 171
APIO_procNo = 3114
writeThread 3114 on CPU 170
APIO_procNo = 938
writeThread 938 on CPU 170
APIO_procNo = 683
APIO_procNo = 2859
APIO_procNo = 3754
writeThread 3754 on CPU 170
APIO_procNo = 3498
writeThread 3498 on CPU 170
APIO_procNo = 171
writeThread 171 on CPU 171
APIO_procNo = 1835
APIO_procNo = 1067
writeThread 1067 on CPU 171
APIO_procNo = 2347
writeThread 2347 on CPU 171
APIO_procNo = 1323
writeThread 1323 on CPU 171
APIO_procNo = 2731
writeThread 2731 on CPU 171
APIO_procNo = 1963
APIO_procNo = 2475
APIO_procNo = 2090
writeThread 2090 on CPU 170
APIO_procNo = 555
APIO_procNo = 2219
APIO_procNo = 2987
writeThread 2987 on CPU 171
APIO_procNo = 1450
writeThread 1450 on CPU 170
APIO_procNo = 426
writeThread 426 on CPU 170
APIO_procNo = 4011
writeThread 4011 on CPU 171
APIO_procNo = 299
writeThread 299 on CPU 171
APIO_procNo = 1579
APIO_procNo = 3882
writeThread 3882 on CPU 170
APIO_procNo = 3627
writeThread 3627 on CPU 171
APIO_procNo = 2603
writeThread 2603 on CPU 171
APIO_procNo = 1707
writeThread 1707 on CPU 171
APIO_procNo = 1196
APIO_procNo = 3244
writeThread 3244 on CPU 172
APIO_procNo = 812
writeThread 812 on CPU 172
APIO_procNo = 3372
writeThread 3372 on CPU 172
APIO_procNo = 3115
writeThread 3115 on CPU 171
APIO_procNo = 939
writeThread 939 on CPU 171
APIO_procNo = 684
APIO_procNo = 2860
APIO_procNo = 3755
writeThread 3755 on CPU 171
APIO_procNo = 3499
writeThread 3499 on CPU 171
APIO_procNo = 172
writeThread 172 on CPU 172
APIO_procNo = 1836
APIO_procNo = 1068
writeThread 1068 on CPU 172
APIO_procNo = 2348
writeThread 2348 on CPU 172
APIO_procNo = 1324
writeThread 1324 on CPU 172
APIO_procNo = 2732
APIO_procNo = 1964
APIO_procNo = 2476
APIO_procNo = 2091
writeThread 2091 on CPU 171
APIO_procNo = 556
writeThread 556 on CPU 172
APIO_procNo = 2220
writeThread 2220 on CPU 172
APIO_procNo = 2988
writeThread 2988 on CPU 172
APIO_procNo = 1451
writeThread 1451 on CPU 171
APIO_procNo = 427
writeThread 427 on CPU 171
APIO_procNo = 4012
writeThread 4012 on CPU 172
APIO_procNo = 300
writeThread 300 on CPU 172
APIO_procNo = 1580
APIO_procNo = 3883
writeThread 3883 on CPU 171
APIO_procNo = 3628
writeThread 3628 on CPU 172
APIO_procNo = 2604
writeThread 2604 on CPU 172
APIO_procNo = 1708
writeThread 1708 on CPU 172
APIO_procNo = 1197
APIO_procNo = 3245
writeThread 3245 on CPU 173
APIO_procNo = 813
writeThread 813 on CPU 173
APIO_procNo = 3373
APIO_procNo = 3116
writeThread 3116 on CPU 172
APIO_procNo = 940
writeThread 940 on CPU 172
APIO_procNo = 685
APIO_procNo = 2861
APIO_procNo = 3756
writeThread 3756 on CPU 172
APIO_procNo = 3500
writeThread 3500 on CPU 172
APIO_procNo = 173
writeThread 173 on CPU 173
APIO_procNo = 1837
APIO_procNo = 1069
writeThread 1069 on CPU 173
APIO_procNo = 2349
writeThread 2349 on CPU 173
APIO_procNo = 1325
writeThread 1325 on CPU 173
APIO_procNo = 2733
APIO_procNo = 1965
APIO_procNo = 2477
APIO_procNo = 2092
writeThread 2092 on CPU 172
APIO_procNo = 557
writeThread 557 on CPU 173
APIO_procNo = 2221
APIO_procNo = 2989
writeThread 2989 on CPU 173
APIO_procNo = 1452
writeThread 1452 on CPU 172
APIO_procNo = 428
writeThread 428 on CPU 172
APIO_procNo = 4013
writeThread 4013 on CPU 173
APIO_procNo = 301
writeThread 301 on CPU 173
APIO_procNo = 1581
APIO_procNo = 3884
writeThread 3884 on CPU 172
APIO_procNo = 3629
writeThread 3629 on CPU 173
APIO_procNo = 2605
writeThread 2605 on CPU 173
APIO_procNo = 1709
writeThread 1709 on CPU 173
APIO_procNo = 1198
APIO_procNo = 3246
writeThread 3246 on CPU 174
APIO_procNo = 814
writeThread 814 on CPU 174
APIO_procNo = 3374
writeThread 3374 on CPU 174
APIO_procNo = 3117
writeThread 3117 on CPU 173
APIO_procNo = 941
writeThread 941 on CPU 173
APIO_procNo = 686
APIO_procNo = 2862
APIO_procNo = 3757
writeThread 3757 on CPU 173
APIO_procNo = 3501
writeThread 3501 on CPU 173
APIO_procNo = 174
writeThread 174 on CPU 174
APIO_procNo = 1838
APIO_procNo = 1070
writeThread 1070 on CPU 174
APIO_procNo = 2350
writeThread 2350 on CPU 174
APIO_procNo = 1326
writeThread 1326 on CPU 174
APIO_procNo = 2734
APIO_procNo = 1966
APIO_procNo = 2478
APIO_procNo = 2093
writeThread 2093 on CPU 173
APIO_procNo = 558
writeThread 558 on CPU 174
APIO_procNo = 2222
APIO_procNo = 2990
writeThread 2990 on CPU 174
APIO_procNo = 1453
writeThread 1453 on CPU 173
APIO_procNo = 429
writeThread 429 on CPU 173
APIO_procNo = 4014
writeThread 4014 on CPU 174
APIO_procNo = 302
writeThread 302 on CPU 174
APIO_procNo = 1582
APIO_procNo = 3885
writeThread 3885 on CPU 173
APIO_procNo = 3630
writeThread 3630 on CPU 174
APIO_procNo = 2606
writeThread 2606 on CPU 174
APIO_procNo = 1710
writeThread 1710 on CPU 174
APIO_procNo = 1199
APIO_procNo = 3247
writeThread 3247 on CPU 175
APIO_procNo = 815
writeThread 815 on CPU 175
APIO_procNo = 3375
writeThread 3375 on CPU 175
APIO_procNo = 3118
writeThread 3118 on CPU 174
APIO_procNo = 942
writeThread 942 on CPU 174
APIO_procNo = 687
writeThread 687 on CPU 175
APIO_procNo = 2863
APIO_procNo = 3758
writeThread 3758 on CPU 174
APIO_procNo = 3502
writeThread 3502 on CPU 174
APIO_procNo = 175
writeThread 175 on CPU 175
APIO_procNo = 1839
APIO_procNo = 1071
writeThread 1071 on CPU 175
APIO_procNo = 2351
writeThread 2351 on CPU 175
APIO_procNo = 1327
writeThread 1327 on CPU 175
APIO_procNo = 2735
APIO_procNo = 1967
APIO_procNo = 2479
APIO_procNo = 2094
writeThread 2094 on CPU 174
APIO_procNo = 559
writeThread 559 on CPU 175
APIO_procNo = 2223
APIO_procNo = 2991
writeThread 2991 on CPU 175
APIO_procNo = 1454
writeThread 1454 on CPU 174
APIO_procNo = 430
writeThread 430 on CPU 174
APIO_procNo = 4015
writeThread 4015 on CPU 175
APIO_procNo = 303
writeThread 303 on CPU 175
APIO_procNo = 1583
APIO_procNo = 3886
writeThread 3886 on CPU 174
APIO_procNo = 3631
writeThread 3631 on CPU 175
APIO_procNo = 2607
writeThread 2607 on CPU 175
APIO_procNo = 1711
writeThread 1711 on CPU 175
APIO_procNo = 1200
writeThread 1200 on CPU 176
APIO_procNo = 3248
writeThread 3248 on CPU 176
APIO_procNo = 816
writeThread 816 on CPU 176
APIO_procNo = 3376
writeThread 3376 on CPU 176
APIO_procNo = 3119
writeThread 3119 on CPU 175
APIO_procNo = 943
writeThread 943 on CPU 175
APIO_procNo = 688
writeThread 688 on CPU 176
APIO_procNo = 2864
writeThread 2864 on CPU 176
APIO_procNo = 3759
writeThread 3759 on CPU 175
APIO_procNo = 3503
writeThread 3503 on CPU 175
APIO_procNo = 176
writeThread 176 on CPU 176
APIO_procNo = 1840
APIO_procNo = 1072
writeThread 1072 on CPU 176
APIO_procNo = 2352
writeThread 2352 on CPU 176
APIO_procNo = 1328
writeThread 1328 on CPU 176
APIO_procNo = 2736
writeThread 2736 on CPU 176
APIO_procNo = 1968
APIO_procNo = 2480
APIO_procNo = 2095
writeThread 2095 on CPU 175
APIO_procNo = 560
writeThread 560 on CPU 176
APIO_procNo = 2224
writeThread 2224 on CPU 176
APIO_procNo = 2992
writeThread 2992 on CPU 176
APIO_procNo = 1455
writeThread 1455 on CPU 175
APIO_procNo = 431
writeThread 431 on CPU 175
APIO_procNo = 4016
writeThread 4016 on CPU 176
APIO_procNo = 304
writeThread 304 on CPU 176
APIO_procNo = 1584
writeThread 1584 on CPU 176
APIO_procNo = 3887
writeThread 3887 on CPU 175
APIO_procNo = 3632
writeThread 3632 on CPU 176
APIO_procNo = 2608
writeThread 2608 on CPU 176
APIO_procNo = 1712
writeThread 1712 on CPU 176
APIO_procNo = 1201
writeThread 1201 on CPU 177
APIO_procNo = 3249
writeThread 3249 on CPU 177
APIO_procNo = 817
writeThread 817 on CPU 177
APIO_procNo = 3377
writeThread 3377 on CPU 177
APIO_procNo = 3120
writeThread 3120 on CPU 176
APIO_procNo = 944
writeThread 944 on CPU 176
APIO_procNo = 689
writeThread 689 on CPU 177
APIO_procNo = 2865
writeThread 2865 on CPU 177
APIO_procNo = 3760
writeThread 3760 on CPU 176
APIO_procNo = 3504
writeThread 3504 on CPU 176
APIO_procNo = 177
writeThread 177 on CPU 177
APIO_procNo = 1841
writeThread 1841 on CPU 177
APIO_procNo = 1073
writeThread 1073 on CPU 177
APIO_procNo = 2353
writeThread 2353 on CPU 177
APIO_procNo = 1329
writeThread 1329 on CPU 177
APIO_procNo = 2737
APIO_procNo = 1969
writeThread 1969 on CPU 177
APIO_procNo = 2481
APIO_procNo = 2096
writeThread 2096 on CPU 176
APIO_procNo = 561
APIO_procNo = 2225
writeThread 2225 on CPU 177
APIO_procNo = 2993
writeThread 2993 on CPU 177
APIO_procNo = 1456
writeThread 1456 on CPU 176
APIO_procNo = 432
writeThread 432 on CPU 176
APIO_procNo = 4017
writeThread 4017 on CPU 177
APIO_procNo = 305
writeThread 305 on CPU 177
APIO_procNo = 1585
writeThread 1585 on CPU 177
APIO_procNo = 3888
writeThread 3888 on CPU 176
APIO_procNo = 3633
writeThread 3633 on CPU 177
APIO_procNo = 2609
writeThread 2609 on CPU 177
APIO_procNo = 1713
writeThread 1713 on CPU 177
APIO_procNo = 1202
writeThread 1202 on CPU 178
APIO_procNo = 3250
writeThread 3250 on CPU 178
APIO_procNo = 818
writeThread 818 on CPU 178
APIO_procNo = 3378
writeThread 3378 on CPU 178
APIO_procNo = 3121
writeThread 3121 on CPU 177
APIO_procNo = 945
writeThread 945 on CPU 177
APIO_procNo = 690
writeThread 690 on CPU 178
APIO_procNo = 2866
APIO_procNo = 3761
writeThread 3761 on CPU 177
APIO_procNo = 3505
writeThread 3505 on CPU 177
APIO_procNo = 178
writeThread 178 on CPU 178
APIO_procNo = 1842
writeThread 1842 on CPU 178
APIO_procNo = 1074
writeThread 1074 on CPU 178
APIO_procNo = 2354
writeThread 2354 on CPU 178
APIO_procNo = 1330
writeThread 1330 on CPU 178
APIO_procNo = 2738
writeThread 2738 on CPU 178
APIO_procNo = 1970
writeThread 1970 on CPU 178
APIO_procNo = 2482
APIO_procNo = 2097
writeThread 2097 on CPU 177
APIO_procNo = 562
writeThread 562 on CPU 178
APIO_procNo = 2226
writeThread 2226 on CPU 178
APIO_procNo = 2994
writeThread 2994 on CPU 178
APIO_procNo = 1457
writeThread 1457 on CPU 177
APIO_procNo = 433
writeThread 433 on CPU 177
APIO_procNo = 4018
writeThread 4018 on CPU 178
APIO_procNo = 306
writeThread 306 on CPU 178
APIO_procNo = 1586
writeThread 1586 on CPU 178
APIO_procNo = 3889
writeThread 3889 on CPU 177
APIO_procNo = 3634
writeThread 3634 on CPU 178
APIO_procNo = 2610
writeThread 2610 on CPU 178
APIO_procNo = 1714
writeThread 1714 on CPU 178
APIO_procNo = 1203
writeThread 1203 on CPU 179
APIO_procNo = 3251
writeThread 3251 on CPU 179
APIO_procNo = 819
writeThread 819 on CPU 179
APIO_procNo = 3379
writeThread 3379 on CPU 179
APIO_procNo = 3122
writeThread 3122 on CPU 178
APIO_procNo = 946
writeThread 946 on CPU 178
APIO_procNo = 691
writeThread 691 on CPU 179
APIO_procNo = 2867
APIO_procNo = 3762
writeThread 3762 on CPU 178
APIO_procNo = 3506
writeThread 3506 on CPU 178
APIO_procNo = 179
APIO_procNo = 1843
writeThread 1843 on CPU 179
APIO_procNo = 1075
writeThread 1075 on CPU 179
APIO_procNo = 2355
writeThread 2355 on CPU 179
APIO_procNo = 1331
writeThread 1331 on CPU 179
APIO_procNo = 2739
writeThread 2739 on CPU 179
APIO_procNo = 1971
writeThread 1971 on CPU 179
APIO_procNo = 2483
writeThread 2483 on CPU 179
APIO_procNo = 2098
writeThread 2098 on CPU 178
APIO_procNo = 563
writeThread 563 on CPU 179
APIO_procNo = 2227
writeThread 2227 on CPU 179
APIO_procNo = 2995
writeThread 2995 on CPU 179
APIO_procNo = 1458
writeThread 1458 on CPU 178
APIO_procNo = 434
writeThread 434 on CPU 178
APIO_procNo = 4019
writeThread 4019 on CPU 179
APIO_procNo = 307
writeThread 307 on CPU 179
APIO_procNo = 1587
writeThread 1587 on CPU 179
APIO_procNo = 3890
writeThread 3890 on CPU 178
APIO_procNo = 3635
writeThread 3635 on CPU 179
APIO_procNo = 2611
writeThread 2611 on CPU 179
APIO_procNo = 1715
writeThread 1715 on CPU 179
APIO_procNo = 1204
writeThread 1204 on CPU 180
APIO_procNo = 3252
writeThread 3252 on CPU 180
APIO_procNo = 820
writeThread 820 on CPU 180
APIO_procNo = 3380
writeThread 3380 on CPU 180
APIO_procNo = 3123
writeThread 3123 on CPU 179
APIO_procNo = 947
writeThread 947 on CPU 179
APIO_procNo = 692
writeThread 692 on CPU 180
APIO_procNo = 2868
APIO_procNo = 3763
writeThread 3763 on CPU 179
APIO_procNo = 3507
writeThread 3507 on CPU 179
APIO_procNo = 180
APIO_procNo = 1844
writeThread 1844 on CPU 180
APIO_procNo = 1076
APIO_procNo = 2356
writeThread 2356 on CPU 180
APIO_procNo = 1332
writeThread 1332 on CPU 180
APIO_procNo = 2740
writeThread 2740 on CPU 180
APIO_procNo = 1972
writeThread 1972 on CPU 180
APIO_procNo = 2484
APIO_procNo = 2099
writeThread 2099 on CPU 179
APIO_procNo = 564
writeThread 564 on CPU 180
APIO_procNo = 2228
writeThread 2228 on CPU 180
APIO_procNo = 2996
writeThread 2996 on CPU 180
APIO_procNo = 1459
writeThread 1459 on CPU 179
APIO_procNo = 435
writeThread 435 on CPU 179
APIO_procNo = 4020
writeThread 4020 on CPU 180
APIO_procNo = 308
writeThread 308 on CPU 180
APIO_procNo = 1588
writeThread 1588 on CPU 180
APIO_procNo = 3891
writeThread 3891 on CPU 179
APIO_procNo = 3636
writeThread 3636 on CPU 180
APIO_procNo = 2612
writeThread 2612 on CPU 180
APIO_procNo = 1716
writeThread 1716 on CPU 180
APIO_procNo = 1205
writeThread 1205 on CPU 181
APIO_procNo = 3253
writeThread 3253 on CPU 181
APIO_procNo = 821
writeThread 821 on CPU 181
APIO_procNo = 3381
writeThread 3381 on CPU 181
APIO_procNo = 3124
writeThread 3124 on CPU 180
APIO_procNo = 948
writeThread 948 on CPU 180
APIO_procNo = 693
writeThread 693 on CPU 181
APIO_procNo = 2869
APIO_procNo = 3764
writeThread 3764 on CPU 180
APIO_procNo = 3508
writeThread 3508 on CPU 180
APIO_procNo = 181
APIO_procNo = 1845
writeThread 1845 on CPU 181
APIO_procNo = 1077
APIO_procNo = 2357
APIO_procNo = 1333
writeThread 1333 on CPU 181
APIO_procNo = 2741
writeThread 2741 on CPU 181
APIO_procNo = 1973
writeThread 1973 on CPU 181
APIO_procNo = 2485
APIO_procNo = 2100
writeThread 2100 on CPU 180
APIO_procNo = 565
writeThread 565 on CPU 181
APIO_procNo = 2229
writeThread 2229 on CPU 181
APIO_procNo = 2997
writeThread 2997 on CPU 181
APIO_procNo = 1460
writeThread 1460 on CPU 180
APIO_procNo = 436
writeThread 436 on CPU 180
APIO_procNo = 4021
writeThread 4021 on CPU 181
APIO_procNo = 309
writeThread 309 on CPU 181
APIO_procNo = 1589
writeThread 1589 on CPU 181
APIO_procNo = 3892
writeThread 3892 on CPU 180
APIO_procNo = 3637
writeThread 3637 on CPU 181
APIO_procNo = 2613
writeThread 2613 on CPU 181
APIO_procNo = 1717
writeThread 1717 on CPU 181
APIO_procNo = 1206
writeThread 1206 on CPU 182
APIO_procNo = 3254
writeThread 3254 on CPU 182
APIO_procNo = 822
APIO_procNo = 3382
writeThread 3382 on CPU 182
APIO_procNo = 3125
writeThread 3125 on CPU 181
APIO_procNo = 949
writeThread 949 on CPU 181
APIO_procNo = 694
writeThread 694 on CPU 182
APIO_procNo = 2870
APIO_procNo = 3765
writeThread 3765 on CPU 181
APIO_procNo = 3509
writeThread 3509 on CPU 181
APIO_procNo = 182
APIO_procNo = 1846
writeThread 1846 on CPU 182
APIO_procNo = 1078
APIO_procNo = 2358
writeThread 2358 on CPU 182
APIO_procNo = 1334
writeThread 1334 on CPU 182
APIO_procNo = 2742
writeThread 2742 on CPU 182
APIO_procNo = 1974
writeThread 1974 on CPU 182
APIO_procNo = 2486
APIO_procNo = 2101
writeThread 2101 on CPU 181
APIO_procNo = 566
writeThread 566 on CPU 182
APIO_procNo = 2230
writeThread 2230 on CPU 182
APIO_procNo = 2998
writeThread 2998 on CPU 182
APIO_procNo = 1461
writeThread 1461 on CPU 181
APIO_procNo = 437
writeThread 437 on CPU 181
APIO_procNo = 4022
writeThread 4022 on CPU 182
APIO_procNo = 310
writeThread 310 on CPU 182
APIO_procNo = 1590
writeThread 1590 on CPU 182
APIO_procNo = 3893
writeThread 3893 on CPU 181
APIO_procNo = 3638
writeThread 3638 on CPU 182
APIO_procNo = 2614
writeThread 2614 on CPU 182
APIO_procNo = 1718
writeThread 1718 on CPU 182
APIO_procNo = 1207
writeThread 1207 on CPU 183
APIO_procNo = 3255
writeThread 3255 on CPU 183
APIO_procNo = 823
writeThread 823 on CPU 183
APIO_procNo = 3383
writeThread 3383 on CPU 183
APIO_procNo = 3126
writeThread 3126 on CPU 182
APIO_procNo = 950
writeThread 950 on CPU 182
APIO_procNo = 695
writeThread 695 on CPU 183
APIO_procNo = 2871
APIO_procNo = 3766
writeThread 3766 on CPU 182
APIO_procNo = 3510
writeThread 3510 on CPU 182
APIO_procNo = 183
APIO_procNo = 1847
writeThread 1847 on CPU 183
APIO_procNo = 1079
APIO_procNo = 2359
writeThread 2359 on CPU 183
APIO_procNo = 1335
writeThread 1335 on CPU 183
APIO_procNo = 2743
writeThread 2743 on CPU 183
APIO_procNo = 1975
writeThread 1975 on CPU 183
APIO_procNo = 2487
APIO_procNo = 2102
writeThread 2102 on CPU 182
APIO_procNo = 567
writeThread 567 on CPU 183
APIO_procNo = 2231
APIO_procNo = 2999
writeThread 2999 on CPU 183
APIO_procNo = 1462
writeThread 1462 on CPU 182
APIO_procNo = 438
writeThread 438 on CPU 182
APIO_procNo = 4023
APIO_procNo = 311
writeThread 311 on CPU 183
APIO_procNo = 1591
writeThread 1591 on CPU 183
APIO_procNo = 3894
writeThread 3894 on CPU 182
APIO_procNo = 3639
writeThread 3639 on CPU 183
APIO_procNo = 2615
writeThread 2615 on CPU 183
APIO_procNo = 1719
writeThread 1719 on CPU 183
APIO_procNo = 1208
writeThread 1208 on CPU 184
APIO_procNo = 3256
writeThread 3256 on CPU 184
APIO_procNo = 824
writeThread 824 on CPU 184
APIO_procNo = 3384
writeThread 3384 on CPU 184
APIO_procNo = 3127
writeThread 3127 on CPU 183
APIO_procNo = 951
writeThread 951 on CPU 183
APIO_procNo = 696
writeThread 696 on CPU 184
APIO_procNo = 2872
APIO_procNo = 3767
writeThread 3767 on CPU 183
APIO_procNo = 3511
writeThread 3511 on CPU 183
APIO_procNo = 184
writeThread 184 on CPU 184
APIO_procNo = 1848
writeThread 1848 on CPU 184
APIO_procNo = 1080
APIO_procNo = 2360
writeThread 2360 on CPU 184
APIO_procNo = 1336
writeThread 1336 on CPU 184
APIO_procNo = 2744
writeThread 2744 on CPU 184
APIO_procNo = 1976
writeThread 1976 on CPU 184
APIO_procNo = 2488
APIO_procNo = 2103
writeThread 2103 on CPU 183
APIO_procNo = 568
writeThread 568 on CPU 184
APIO_procNo = 2232
writeThread 2232 on CPU 184
APIO_procNo = 3000
writeThread 3000 on CPU 184
APIO_procNo = 1463
writeThread 1463 on CPU 183
APIO_procNo = 439
APIO_procNo = 4024
writeThread 4024 on CPU 184
APIO_procNo = 312
writeThread 312 on CPU 184
APIO_procNo = 1592
writeThread 1592 on CPU 184
APIO_procNo = 3895
writeThread 3895 on CPU 183
APIO_procNo = 3640
writeThread 3640 on CPU 184
APIO_procNo = 2616
writeThread 2616 on CPU 184
APIO_procNo = 1720
writeThread 1720 on CPU 184
APIO_procNo = 1209
writeThread 1209 on CPU 185
APIO_procNo = 3257
writeThread 3257 on CPU 185
APIO_procNo = 825
writeThread 825 on CPU 185
APIO_procNo = 3385
writeThread 3385 on CPU 185
APIO_procNo = 3128
writeThread 3128 on CPU 184
APIO_procNo = 952
writeThread 952 on CPU 184
APIO_procNo = 697
writeThread 697 on CPU 185
APIO_procNo = 2873
APIO_procNo = 3768
writeThread 3768 on CPU 184
APIO_procNo = 3512
writeThread 3512 on CPU 184
APIO_procNo = 185
APIO_procNo = 1849
writeThread 1849 on CPU 185
APIO_procNo = 1081
APIO_procNo = 2361
writeThread 2361 on CPU 185
APIO_procNo = 1337
writeThread 1337 on CPU 185
APIO_procNo = 2745
writeThread 2745 on CPU 185
APIO_procNo = 1977
writeThread 1977 on CPU 185
APIO_procNo = 2489
APIO_procNo = 2104
writeThread 2104 on CPU 184
APIO_procNo = 569
writeThread 569 on CPU 185
APIO_procNo = 2233
writeThread 2233 on CPU 185
APIO_procNo = 3001
writeThread 3001 on CPU 185
APIO_procNo = 1464
writeThread 1464 on CPU 184
APIO_procNo = 440
writeThread 440 on CPU 184
APIO_procNo = 4025
writeThread 4025 on CPU 185
APIO_procNo = 313
writeThread 313 on CPU 185
APIO_procNo = 1593
writeThread 1593 on CPU 185
APIO_procNo = 3896
writeThread 3896 on CPU 184
APIO_procNo = 3641
writeThread 3641 on CPU 185
APIO_procNo = 2617
writeThread 2617 on CPU 185
APIO_procNo = 1721
writeThread 1721 on CPU 185
APIO_procNo = 1210
writeThread 1210 on CPU 186
APIO_procNo = 3258
writeThread 3258 on CPU 186
APIO_procNo = 826
writeThread 826 on CPU 186
APIO_procNo = 3386
writeThread 3386 on CPU 186
APIO_procNo = 3129
writeThread 3129 on CPU 185
APIO_procNo = 953
writeThread 953 on CPU 185
APIO_procNo = 698
writeThread 698 on CPU 186
APIO_procNo = 2874
APIO_procNo = 3769
writeThread 3769 on CPU 185
APIO_procNo = 3513
writeThread 3513 on CPU 185
APIO_procNo = 186
writeThread 186 on CPU 186
APIO_procNo = 1850
writeThread 1850 on CPU 186
APIO_procNo = 1082
APIO_procNo = 2362
writeThread 2362 on CPU 186
APIO_procNo = 1338
writeThread 1338 on CPU 186
APIO_procNo = 2746
writeThread 2746 on CPU 186
APIO_procNo = 1978
writeThread 1978 on CPU 186
APIO_procNo = 2490
APIO_procNo = 2105
writeThread 2105 on CPU 185
APIO_procNo = 570
writeThread 570 on CPU 186
APIO_procNo = 2234
writeThread 2234 on CPU 186
APIO_procNo = 3002
writeThread 3002 on CPU 186
APIO_procNo = 1465
writeThread 1465 on CPU 185
APIO_procNo = 441
writeThread 441 on CPU 185
APIO_procNo = 4026
writeThread 4026 on CPU 186
APIO_procNo = 314
writeThread 314 on CPU 186
APIO_procNo = 1594
writeThread 1594 on CPU 186
APIO_procNo = 3897
writeThread 3897 on CPU 185
APIO_procNo = 3642
writeThread 3642 on CPU 186
APIO_procNo = 2618
writeThread 2618 on CPU 186
APIO_procNo = 1722
writeThread 1722 on CPU 186
APIO_procNo = 1211
writeThread 1211 on CPU 187
APIO_procNo = 3259
writeThread 3259 on CPU 187
APIO_procNo = 827
writeThread 827 on CPU 187
APIO_procNo = 3387
writeThread 3387 on CPU 187
APIO_procNo = 3130
writeThread 3130 on CPU 186
APIO_procNo = 954
writeThread 954 on CPU 186
APIO_procNo = 699
writeThread 699 on CPU 187
APIO_procNo = 2875
APIO_procNo = 3770
writeThread 3770 on CPU 186
APIO_procNo = 3514
writeThread 3514 on CPU 186
APIO_procNo = 187
APIO_procNo = 1851
writeThread 1851 on CPU 187
APIO_procNo = 1083
APIO_procNo = 2363
writeThread 2363 on CPU 187
APIO_procNo = 1339
writeThread 1339 on CPU 187
APIO_procNo = 2747
writeThread 2747 on CPU 187
APIO_procNo = 1979
writeThread 1979 on CPU 187
APIO_procNo = 2491
APIO_procNo = 2106
writeThread 2106 on CPU 186
APIO_procNo = 571
writeThread 571 on CPU 187
APIO_procNo = 2235
writeThread 2235 on CPU 187
APIO_procNo = 3003
writeThread 3003 on CPU 187
APIO_procNo = 1466
writeThread 1466 on CPU 186
APIO_procNo = 442
writeThread 442 on CPU 186
APIO_procNo = 4027
writeThread 4027 on CPU 187
APIO_procNo = 315
writeThread 315 on CPU 187
APIO_procNo = 1595
writeThread 1595 on CPU 187
APIO_procNo = 3898
writeThread 3898 on CPU 186
APIO_procNo = 3643
writeThread 3643 on CPU 187
APIO_procNo = 2619
writeThread 2619 on CPU 187
APIO_procNo = 1723
writeThread 1723 on CPU 187
APIO_procNo = 1212
writeThread 1212 on CPU 188
APIO_procNo = 3260
writeThread 3260 on CPU 188
APIO_procNo = 828
writeThread 828 on CPU 188
APIO_procNo = 3388
writeThread 3388 on CPU 188
APIO_procNo = 3131
writeThread 3131 on CPU 187
APIO_procNo = 955
writeThread 955 on CPU 187
APIO_procNo = 700
writeThread 700 on CPU 188
APIO_procNo = 2876
APIO_procNo = 3771
writeThread 3771 on CPU 187
APIO_procNo = 3515
writeThread 3515 on CPU 187
APIO_procNo = 188
APIO_procNo = 1852
writeThread 1852 on CPU 188
APIO_procNo = 1084
writeThread 1084 on CPU 188
APIO_procNo = 2364
writeThread 2364 on CPU 188
APIO_procNo = 1340
writeThread 1340 on CPU 188
APIO_procNo = 2748
writeThread 2748 on CPU 188
APIO_procNo = 1980
writeThread 1980 on CPU 188
APIO_procNo = 2492
APIO_procNo = 2107
writeThread 2107 on CPU 187
APIO_procNo = 572
writeThread 572 on CPU 188
APIO_procNo = 2236
writeThread 2236 on CPU 188
APIO_procNo = 3004
writeThread 3004 on CPU 188
APIO_procNo = 1467
writeThread 1467 on CPU 187
APIO_procNo = 443
writeThread 443 on CPU 187
APIO_procNo = 4028
writeThread 4028 on CPU 188
APIO_procNo = 316
writeThread 316 on CPU 188
APIO_procNo = 1596
writeThread 1596 on CPU 188
APIO_procNo = 3899
writeThread 3899 on CPU 187
[...]
DILUPBiCG:  Solving for k, Initial residual = 0.01485623908429059, Final residual = 8.240226068562027e-13, No Iterations 5
ExecutionTime = 3771.22 s  ClockTime = 11389 s

APIO_IO_STEP = 74.80416605700339
Courant Number mean: 7.002755325687625e-07 max: 0.2019000670717952
deltaT = 3.275039172157495e-06
Time = 0.000114292

PIMPLE: iteration 1
diagonal:  Solving for rho, Initial residual = 0, Final residual = 0, No Iterations 0
DILUPBiCG:  Solving for Ux, Initial residual = 0.02802385729650192, Final residual = 4.261554452727685e-13, No Iterations 5
DILUPBiCG:  Solving for Uy, Initial residual = 0.02802337021305158, Final residual = 4.549330327191132e-13, No Iterations 5
DILUPBiCG:  Solving for Uz, Initial residual = 0.01223048354343196, Final residual = 7.279222668303751e-13, No Iterations 5
DILUPBiCG:  Solving for e, Initial residual = 0.01489081881715231, Final residual = 4.348754027399598e-13, No Iterations 5
DILUPBiCG:  Solving for p, Initial residual = 0.01932871697191215, Final residual = 3.052043764350307e-05, No Iterations 1
pEqnloop: 0
diagonal:  Solving for rho, Initial residual = 0, Final residual = 0, No Iterations 0
time step continuity errors : sum local = 4.032087942833873e-10, global = -7.462660993078911e-11, cumulative = 3.563361581683714e-12
DILUPBiCG:  Solving for p, Initial residual = 0.0001783406935139954, Final residual = 1.603997284725203e-14, No Iterations 5
pEqnloop: 1
diagonal:  Solving for rho, Initial residual = 0, Final residual = 0, No Iterations 0
time step continuity errors : sum local = 1.863404191048385e-16, global = 1.427750486549381e-17, cumulative = 3.56337585918858e-12
DILUPBiCG:  Solving for k, Initial residual = 0.01417423872272571, Final residual = 7.989712535880576e-13, No Iterations 5
ExecutionTime = 3828.66 s  ClockTime = 11527 s

APIO_IO_STEP = 60.59001499099759
Courant Number mean: 7.25104691045272e-07 max: 0.2015706452022884
deltaT = 3.24951995750252e-06
Time = 0.000117541

PIMPLE: iteration 1
diagonal:  Solving for rho, Initial residual = 0, Final residual = 0, No Iterations 0
DILUPBiCG:  Solving for Ux, Initial residual = 0.02699412583111697, Final residual = 4.109258478061323e-13, No Iterations 5
DILUPBiCG:  Solving for Uy, Initial residual = 0.0269935051567278, Final residual = 4.291194379340489e-13, No Iterations 5
DILUPBiCG:  Solving for Uz, Initial residual = 0.01203526023226861, Final residual = 6.444339884474978e-13, No Iterations 5
DILUPBiCG:  Solving for e, Initial residual = 0.01470418650378887, Final residual = 4.877016318658396e-13, No Iterations 5
DILUPBiCG:  Solving for p, Initial residual = 0.01893952986766684, Final residual = 2.833391523332904e-05, No Iterations 1
pEqnloop: 0
diagonal:  Solving for rho, Initial residual = 0, Final residual = 0, No Iterations 0
time step continuity errors : sum local = 3.858381718220952e-10, global = -5.707333193987369e-11, cumulative = -5.350995608068511e-11
DILUPBiCG:  Solving for p, Initial residual = 0.0001603665886835999, Final residual = 7.814562936880234e-15, No Iterations 5
pEqnloop: 1
diagonal:  Solving for rho, Initial residual = 0, Final residual = 0, No Iterations 0
time step continuity errors : sum local = 1.888547733643103e-16, global = 4.365945550029873e-17, cumulative = -5.350991242122961e-11
DILUPBiCG:  Solving for k, Initial residual = 0.01353872096625897, Final residual = 7.892065390491039e-13, No Iterations 5
ExecutionTime = 3860.42 s  ClockTime = 11668 s

APIO_IO_STEP = 69.06350030299836
Courant Number mean: 7.50291596780268e-07 max: 0.2018181513502541
deltaT = 3.220245489081884e-06
Time = 0.000120761

PIMPLE: iteration 1
diagonal:  Solving for rho, Initial residual = 0, Final residual = 0, No Iterations 0
DILUPBiCG:  Solving for Ux, Initial residual = 0.02599858426290961, Final residual = 3.990892962951055e-13, No Iterations 5
DILUPBiCG:  Solving for Uy, Initial residual = 0.02599825165236747, Final residual = 4.086943850666389e-13, No Iterations 5
DILUPBiCG:  Solving for Uz, Initial residual = 0.01172188961729409, Final residual = 5.858105726761306e-13, No Iterations 5
DILUPBiCG:  Solving for e, Initial residual = 0.01446745651645839, Final residual = 6.349453103505775e-13, No Iterations 5
DILUPBiCG:  Solving for p, Initial residual = 0.01885382581512651, Final residual = 2.746338945333277e-05, No Iterations 1
pEqnloop: 0
diagonal:  Solving for rho, Initial residual = 0, Final residual = 0, No Iterations 0
time step continuity errors : sum local = 3.851320847142572e-10, global = -4.233556317838829e-11, cumulative = -9.584547559961789e-11
DILUPBiCG:  Solving for p, Initial residual = 0.0001846979427104558, Final residual = 9.447428242471955e-13, No Iterations 4
pEqnloop: 1
diagonal:  Solving for rho, Initial residual = 0, Final residual = 0, No Iterations 0
time step continuity errors : sum local = 1.991438893329262e-16, global = -2.183911824513779e-17, cumulative = -9.584549743873613e-11
DILUPBiCG:  Solving for k, Initial residual = 0.01290420349493127, Final residual = 8.626106787623813e-13, No Iterations 5
ExecutionTime = 3868.65 s  ClockTime = 11801 s

APIO_IO_STEP = 82.73784317399623
Courant Number mean: 7.741886405072334e-07 max: 0.2022607817681812
deltaT = 3.184251005983666e-06
Time = 0.000123946

PIMPLE: iteration 1
diagonal:  Solving for rho, Initial residual = 0, Final residual = 0, No Iterations 0
DILUPBiCG:  Solving for Ux, Initial residual = 0.02500762110902392, Final residual = 3.745067969230798e-13, No Iterations 5
DILUPBiCG:  Solving for Uy, Initial residual = 0.02500720281985338, Final residual = 3.946254352423654e-13, No Iterations 5
DILUPBiCG:  Solving for Uz, Initial residual = 0.01133878793941947, Final residual = 5.374241648848436e-13, No Iterations 5
DILUPBiCG:  Solving for e, Initial residual = 0.01448124588851607, Final residual = 7.084182796699618e-13, No Iterations 5
DILUPBiCG:  Solving for p, Initial residual = 0.01860793279827285, Final residual = 2.767720820050068e-05, No Iterations 1
pEqnloop: 0
diagonal:  Solving for rho, Initial residual = 0, Final residual = 0, No Iterations 0
time step continuity errors : sum local = 3.99291276164751e-10, global = -4.756253572348504e-11, cumulative = -1.434080331622212e-10
DILUPBiCG:  Solving for p, Initial residual = 0.0002202648120670682, Final residual = 9.109465115147002e-15, No Iterations 5
pEqnloop: 1
diagonal:  Solving for rho, Initial residual = 0, Final residual = 0, No Iterations 0
time step continuity errors : sum local = 1.884623696306458e-16, global = -5.553591923841711e-17, cumulative = -1.434080886981404e-10
DILUPBiCG:  Solving for k, Initial residual = 0.01226078189811095, Final residual = 3.360280555573984e-14, No Iterations 6
ExecutionTime = 3901.65 s  ClockTime = 11934 s

APIO_IO_STEP = 78.81088641100541
Courant Number mean: 7.966260444978956e-07 max: 0.2025191226057225
deltaT = 3.144642308354218e-06
Time = 0.00012709

PIMPLE: iteration 1
diagonal:  Solving for rho, Initial residual = 0, Final residual = 0, No Iterations 0
DILUPBiCG:  Solving for Ux, Initial residual = 0.02404706399603466, Final residual = 3.36815753812338e-13, No Iterations 5
DILUPBiCG:  Solving for Uy, Initial residual = 0.02404685994041162, Final residual = 3.870811174201112e-13, No Iterations 5
DILUPBiCG:  Solving for Uz, Initial residual = 0.01104675416310552, Final residual = 4.949164143695003e-13, No Iterations 5
DILUPBiCG:  Solving for e, Initial residual = 0.01421149351503416, Final residual = 7.360276504403078e-13, No Iterations 5
DILUPBiCG:  Solving for p, Initial residual = 0.01819284957300641, Final residual = 2.814523577488989e-05, No Iterations 1
pEqnloop: 0
diagonal:  Solving for rho, Initial residual = 0, Final residual = 0, No Iterations 0
time step continuity errors : sum local = 4.172865597346354e-10, global = -6.758246440735551e-11, cumulative = -2.109905531054959e-10
DILUPBiCG:  Solving for p, Initial residual = 0.0001887673273631199, Final residual = 2.348823713355479e-14, No Iterations 5
pEqnloop: 1
diagonal:  Solving for rho, Initial residual = 0, Final residual = 0, No Iterations 0
time step continuity errors : sum local = 1.833666609717056e-16, global = -1.280838730819688e-17, cumulative = -2.109905659138833e-10
DILUPBiCG:  Solving for k, Initial residual = 0.01162432254295985, Final residual = 1.506848805135384e-13, No Iterations 6
ExecutionTime = 3931.62 s  ClockTime = 12068 s

APIO_IO_STEP = 78.61609328999839
Courant Number mean: 8.18207518022125e-07 max: 0.2025768228344747
deltaT = 3.104641749588191e-06
Time = 0.000130195

PIMPLE: iteration 1
diagonal:  Solving for rho, Initial residual = 0, Final residual = 0, No Iterations 0
DILUPBiCG:  Solving for Ux, Initial residual = 0.02318480734188615, Final residual = 2.878506315426084e-13, No Iterations 5
DILUPBiCG:  Solving for Uy, Initial residual = 0.02318468564251555, Final residual = 3.816693522022794e-13, No Iterations 5
DILUPBiCG:  Solving for Uz, Initial residual = 0.01082210286630179, Final residual = 4.521961852960391e-13, No Iterations 5
DILUPBiCG:  Solving for e, Initial residual = 0.01380423935037187, Final residual = 9.235372735002143e-13, No Iterations 5
DILUPBiCG:  Solving for p, Initial residual = 0.01756331258045224, Final residual = 2.664589165750685e-05, No Iterations 1
pEqnloop: 0
diagonal:  Solving for rho, Initial residual = 0, Final residual = 0, No Iterations 0
time step continuity errors : sum local = 4.055982221580444e-10, global = -7.367894337250162e-11, cumulative = -2.846695092863849e-10
DILUPBiCG:  Solving for p, Initial residual = 0.0001512606541506707, Final residual = 1.102458768920803e-14, No Iterations 5
pEqnloop: 1
diagonal:  Solving for rho, Initial residual = 0, Final residual = 0, No Iterations 0
time step continuity errors : sum local = 1.812652881342759e-16, global = -3.283674858795129e-18, cumulative = -2.846695125700597e-10
DILUPBiCG:  Solving for k, Initial residual = 0.01101094877709226, Final residual = 2.159705371333457e-14, No Iterations 6
ExecutionTime = 3980.09 s  ClockTime = 12208 s

APIO_IO_STEP = 67.65429482499894
Courant Number mean: 8.389316365662926e-07 max: 0.2018763805837498
deltaT = 3.075785033009538e-06
Time = 0.000133271

PIMPLE: iteration 1
diagonal:  Solving for rho, Initial residual = 0, Final residual = 0, No Iterations 0
DILUPBiCG:  Solving for Ux, Initial residual = 0.02248546549981112, Final residual = 2.42216332533966e-13, No Iterations 5
DILUPBiCG:  Solving for Uy, Initial residual = 0.02248540091791116, Final residual = 3.397308857892349e-13, No Iterations 5
DILUPBiCG:  Solving for Uz, Initial residual = 0.01059812333230282, Final residual = 4.191252361767659e-13, No Iterations 5
DILUPBiCG:  Solving for e, Initial residual = 0.01351871237557641, Final residual = 2.44759627841711e-15, No Iterations 6
DILUPBiCG:  Solving for p, Initial residual = 0.01726283981453744, Final residual = 2.488141660235704e-05, No Iterations 1
pEqnloop: 0
diagonal:  Solving for rho, Initial residual = 0, Final residual = 0, No Iterations 0
time step continuity errors : sum local = 3.884987579469523e-10, global = -7.758561108095859e-11, cumulative = -3.622551236510183e-10
DILUPBiCG:  Solving for p, Initial residual = 0.0001390892404210183, Final residual = 9.846445780139496e-13, No Iterations 4
pEqnloop: 1
diagonal:  Solving for rho, Initial residual = 0, Final residual = 0, No Iterations 0
time step continuity errors : sum local = 1.945317346080619e-16, global = 1.407186998918925e-17, cumulative = -3.622551095791483e-10
DILUPBiCG:  Solving for k, Initial residual = 0.01048596610872996, Final residual = 7.77141001795261e-13, No Iterations 5
ExecutionTime = 4019.28 s  ClockTime = 12348 s

APIO_IO_STEP = 78.10957177600176
Courant Number mean: 8.611286421899997e-07 max: 0.2010185471673603
deltaT = 3.060200241571483e-06
Time = 0.000136331

PIMPLE: iteration 1
diagonal:  Solving for rho, Initial residual = 0, Final residual = 0, No Iterations 0
DILUPBiCG:  Solving for Ux, Initial residual = 0.02190452263405953, Final residual = 2.103978167190447e-13, No Iterations 5
DILUPBiCG:  Solving for Uy, Initial residual = 0.02190448799245796, Final residual = 1.643228575094382e-13, No Iterations 5
DILUPBiCG:  Solving for Uz, Initial residual = 0.01037340961915467, Final residual = 3.986523791200337e-13, No Iterations 5
DILUPBiCG:  Solving for e, Initial residual = 0.01349355694822213, Final residual = 7.708221439149014e-15, No Iterations 6
DILUPBiCG:  Solving for p, Initial residual = 0.01733234247498759, Final residual = 2.390832081889437e-05, No Iterations 1
pEqnloop: 0
diagonal:  Solving for rho, Initial residual = 0, Final residual = 0, No Iterations 0
time step continuity errors : sum local = 3.826329844979326e-10, global = -7.648218769283753e-11, cumulative = -4.387372972719858e-10
DILUPBiCG:  Solving for p, Initial residual = 0.0001379122628375936, Final residual = 6.021447682968309e-13, No Iterations 4
pEqnloop: 1
diagonal:  Solving for rho, Initial residual = 0, Final residual = 0, No Iterations 0
time step continuity errors : sum local = 1.954655098014543e-16, global = -6.264882930588244e-17, cumulative = -4.387373599208151e-10
DILUPBiCG:  Solving for k, Initial residual = 0.01011654804668444, Final residual = 9.088990874742745e-13, No Iterations 5
ExecutionTime = 4055.61 s  ClockTime = 12495 s

APIO_IO_STEP = 75.66771338700164
Courant Number mean: 8.860423061420541e-07 max: 0.2004012146045314
deltaT = 3.054073547019581e-06
Time = 0.000139385

PIMPLE: iteration 1
diagonal:  Solving for rho, Initial residual = 0, Final residual = 0, No Iterations 0
DILUPBiCG:  Solving for Ux, Initial residual = 0.02141867879027439, Final residual = 1.95962329215895e-13, No Iterations 5
DILUPBiCG:  Solving for Uy, Initial residual = 0.02141866591249189, Final residual = 5.23967951735893e-14, No Iterations 6
DILUPBiCG:  Solving for Uz, Initial residual = 0.01016118977185583, Final residual = 3.909108898446353e-13, No Iterations 5
DILUPBiCG:  Solving for e, Initial residual = 0.01364686379194834, Final residual = 6.577446341822818e-13, No Iterations 5
DILUPBiCG:  Solving for p, Initial residual = 0.01734081758157756, Final residual = 2.420885909012299e-05, No Iterations 1
pEqnloop: 0
diagonal:  Solving for rho, Initial residual = 0, Final residual = 0, No Iterations 0
time step continuity errors : sum local = 3.968688147707792e-10, global = -8.057279761676089e-11, cumulative = -5.19310157537576e-10
DILUPBiCG:  Solving for p, Initial residual = 0.0001795526109802171, Final residual = 9.197797959580028e-13, No Iterations 4
pEqnloop: 1
diagonal:  Solving for rho, Initial residual = 0, Final residual = 0, No Iterations 0
time step continuity errors : sum local = 1.948066878145209e-16, global = 4.062532145632212e-18, cumulative = -5.193101534750438e-10
DILUPBiCG:  Solving for k, Initial residual = 0.009874849519605556, Final residual = 1.460333570277432e-14, No Iterations 6
ExecutionTime = 4084.71 s  ClockTime = 12631 s

APIO_IO_STEP = 76.56579379399955
Courant Number mean: 9.14009927789325e-07 max: 0.2020959946738894
deltaT = 3.022398887170176e-06
Time = 0.000142407

PIMPLE: iteration 1
diagonal:  Solving for rho, Initial residual = 0, Final residual = 0, No Iterations 0
DILUPBiCG:  Solving for Ux, Initial residual = 0.0207885537809682, Final residual = 2.335979598609412e-13, No Iterations 5
DILUPBiCG:  Solving for Uy, Initial residual = 0.02078851834623191, Final residual = 6.321262120461483e-13, No Iterations 5
DILUPBiCG:  Solving for Uz, Initial residual = 0.009976205041675136, Final residual = 3.658837093151442e-13, No Iterations 5
DILUPBiCG:  Solving for e, Initial residual = 0.01338737246190939, Final residual = 6.076975562652052e-13, No Iterations 5
DILUPBiCG:  Solving for p, Initial residual = 0.01689844205924847, Final residual = 2.48169710271341e-05, No Iterations 1
pEqnloop: 0
diagonal:  Solving for rho, Initial residual = 0, Final residual = 0, No Iterations 0
time step continuity errors : sum local = 4.164752283788366e-10, global = -9.215412135465708e-11, cumulative = -6.114642748297009e-10
DILUPBiCG:  Solving for p, Initial residual = 0.0001567417914773296, Final residual = 9.164960836596779e-15, No Iterations 5
pEqnloop: 1
diagonal:  Solving for rho, Initial residual = 0, Final residual = 0, No Iterations 0
time step continuity errors : sum local = 1.787637532002556e-16, global = -3.867570050978703e-17, cumulative = -6.114643135054014e-10
DILUPBiCG:  Solving for k, Initial residual = 0.009662329749966414, Final residual = 9.152499005513315e-13, No Iterations 5
ExecutionTime = 4111.93 s  ClockTime = 12772 s

APIO_IO_STEP = 74.1384227879953
Courant Number mean: 9.351484672918468e-07 max: 0.2039425926765012
deltaT = 2.963970250161883e-06
Time = 0.000145371

PIMPLE: iteration 1
diagonal:  Solving for rho, Initial residual = 0, Final residual = 0, No Iterations 0
DILUPBiCG:  Solving for Ux, Initial residual = 0.02006232735832957, Final residual = 2.964498586341845e-13, No Iterations 5
DILUPBiCG:  Solving for Uy, Initial residual = 0.02006210039380454, Final residual = 5.384606565084326e-13, No Iterations 5
DILUPBiCG:  Solving for Uz, Initial residual = 0.00968418927990855, Final residual = 3.194957913441902e-13, No Iterations 5
DILUPBiCG:  Solving for e, Initial residual = 0.01289666825928309, Final residual = 7.98813393886971e-15, No Iterations 6
DILUPBiCG:  Solving for p, Initial residual = 0.01633414775770818, Final residual = 2.429622416052719e-05, No Iterations 1
pEqnloop: 0
diagonal:  Solving for rho, Initial residual = 0, Final residual = 0, No Iterations 0
time step continuity errors : sum local = 4.170772538618736e-10, global = -9.980679136058552e-11, cumulative = -7.112711048659869e-10
DILUPBiCG:  Solving for p, Initial residual = 0.0001338003253586729, Final residual = 8.232098772742992e-13, No Iterations 4
pEqnloop: 1
diagonal:  Solving for rho, Initial residual = 0, Final residual = 0, No Iterations 0
time step continuity errors : sum local = 2.020654081335188e-16, global = 5.388932425270693e-17, cumulative = -7.112710509766627e-10
DILUPBiCG:  Solving for k, Initial residual = 0.009425486537553648, Final residual = 7.20332537282957e-13, No Iterations 5
ExecutionTime = 4126.59 s  ClockTime = 12901 s

APIO_IO_STEP = 77.58862907500225
Courant Number mean: 9.474337146263911e-07 max: 0.2037805515989425
deltaT = 2.908982458733565e-06
Time = 0.00014828

PIMPLE: iteration 1
diagonal:  Solving for rho, Initial residual = 0, Final residual = 0, No Iterations 0
DILUPBiCG:  Solving for Ux, Initial residual = 0.01940768679050244, Final residual = 3.541365540487937e-13, No Iterations 5
DILUPBiCG:  Solving for Uy, Initial residual = 0.01940772465574926, Final residual = 5.825584188894455e-13, No Iterations 5
DILUPBiCG:  Solving for Uz, Initial residual = 0.009424657366463774, Final residual = 2.762016913271584e-13, No Iterations 5
DILUPBiCG:  Solving for e, Initial residual = 0.01241055943710778, Final residual = 5.033617168421039e-15, No Iterations 6
DILUPBiCG:  Solving for p, Initial residual = 0.01601607095594319, Final residual = 2.269914849396429e-05, No Iterations 1
pEqnloop: 0
diagonal:  Solving for rho, Initial residual = 0, Final residual = 0, No Iterations 0
time step continuity errors : sum local = 3.982541161479163e-10, global = -9.992185882670004e-11, cumulative = -8.111929098033627e-10
DILUPBiCG:  Solving for p, Initial residual = 0.0001294082135228173, Final residual = 7.826095883398832e-13, No Iterations 4
pEqnloop: 1
diagonal:  Solving for rho, Initial residual = 0, Final residual = 0, No Iterations 0
time step continuity errors : sum local = 1.856874903917565e-16, global = 2.13364032030748e-18, cumulative = -8.111929076697224e-10
DILUPBiCG:  Solving for k, Initial residual = 0.009218907955374289, Final residual = 6.093574165831245e-13, No Iterations 5
ExecutionTime = 4155.6 s  ClockTime = 13036 s

APIO_IO_STEP = 84.38486685100361
[1603972750.771297] [r36c3t1n4:79080:0]         cma_ep.c:61   UCX  ERROR process_vm_readv(pid=78953 length=9088) returned -1: No such process
