/*---------------------------------------------------------------------------*\
| =========                 |                                                 |
| \\      /  F ield         | OpenFOAM: The Open Source CFD Toolbox           |
|  \\    /   O peration     | Version:  v1912                                 |
|   \\  /    A nd           | Website:  www.openfoam.com                      |
|    \\/     M anipulation  |                                                 |
\*---------------------------------------------------------------------------*/
Build  : _f3950763fe-20191219 OPENFOAM=1912
Arch   : "LSB;label=32;scalar=64"
Exec   : rhoPimpleFoam_METRICS -parallel
Date   : Nov 18 2020
Time   : 00:02:15
Host   : s24r2b71
PID    : 121751
I/O    : uncollated
Case   : /gpfs/scratch/pr1ejg00/pr1ejg20/openfoam/apio_32M/48
nProcs : 48
Hosts  :
(
    (s24r2b71 48)
)
Pstream initialized with:
    floatTransfer      : 0
    nProcsSimpleSum    : 0
    commsType          : nonBlocking
    polling iterations : 0
trapFpe: Floating point exception trapping enabled (FOAM_SIGFPE).
fileModificationChecking : Monitoring run-time modified files using timeStampMaster (fileModificationSkew 10)
allowSystemOperations : Allowing user-supplied system call operations

// * * * * * * * * * * * * * * * * * * * * * * * * * * * * * * * * * * * * * //
Create time

Create mesh for time = 0


PIMPLE: Operating solver in PISO mode

Reading thermophysical properties

Selecting thermodynamics package 
{
    type            hePsiThermo;
    mixture         pureMixture;
    transport       const;
    thermo          eConst;
    equationOfState perfectGas;
    specie          specie;
    energy          sensibleInternalEnergy;
}

Reading field U

Reading/calculating face flux field phi

--> FOAM Warning : 
    From function Foam::pressureControl::pressureControl(const Foam::GeometricField<double, Foam::fvPatchField, Foam::volMesh> &, const Foam::GeometricField<double, Foam::fvPatchField, Foam::volMesh> &, const Foam::dictionary &, bool)
    in file cfdTools/general/pressureControl/pressureControl.C at line 123
    Reading "/gpfs/scratch/pr1ejg00/pr1ejg20/openfoam/apio_32M/48/system/fvSolution.PIMPLE"
    'rhoMax' specified rather than 'pMax' or 'pMaxFactor'
    This is supported for backward-compatibility but 'pMax' or 'pMaxFactor' are more reliable.
--> FOAM Warning : 
    From function Foam::pressureControl::pressureControl(const Foam::GeometricField<double, Foam::fvPatchField, Foam::volMesh> &, const Foam::GeometricField<double, Foam::fvPatchField, Foam::volMesh> &, const Foam::dictionary &, bool)
    in file cfdTools/general/pressureControl/pressureControl.C at line 178
    Reading "/gpfs/scratch/pr1ejg00/pr1ejg20/openfoam/apio_32M/48/system/fvSolution.PIMPLE"
    'rhoMin' specified rather than 'pMin' or 'pMinFactor'
    This is supported for backward-compatibility but 'pMin' or 'pMinFactor' are more reliable.
pressureControl
    pMax 1726187.557059955
    pMin 4747.015781914877

Creating turbulence model

Selecting turbulence model type LES
Selecting LES turbulence model kEqn
Selecting LES delta type cubeRootVol
LES
{
    LESModel        kEqn;
    turbulence      on;
    printCoeffs     on;
    delta           cubeRootVol;
    cubeRootVolCoeffs
    {
        deltaCoeff      1;
    }
    PrandtlCoeffs
    {
        delta           cubeRootVol;
        cubeRootVolCoeffs
        {
            deltaCoeff      1;
        }
        smoothCoeffs
        {
            delta           cubeRootVol;
            cubeRootVolCoeffs
            {
                deltaCoeff      1;
            }
            maxDeltaRatio   1.1;
        }
        Cdelta          0.158;
    }
    vanDriestCoeffs
    {
        delta           cubeRootVol;
        cubeRootVolCoeffs
        {
            deltaCoeff      1;
        }
        smoothCoeffs
        {
            delta           cubeRootVol;
            cubeRootVolCoeffs
            {
                deltaCoeff      1;
            }
            maxDeltaRatio   1.1;
        }
        Aplus           26;
        Cdelta          0.158;
    }
    smoothCoeffs
    {
        delta           cubeRootVol;
        cubeRootVolCoeffs
        {
            deltaCoeff      1;
        }
        maxDeltaRatio   1.1;
    }
    Ce              1.048;
    Ck              0.094;
}

Creating field dpdt

Creating field kinetic energy K

No MRF models present

No finite volume options present
procNo = 0
masterNo = 0
procNo = 8
procNo = 2
procNo = 16
procNo = 12
procNo = 17
procNo = 9
procNo = 18
procNo = 14
procNo = 1
procNo = 15
procNo = 20
procNo = 3
procNo = 13
procNo = 32
procNo = 33
procNo = 4
procNo = 10
procNo = 24
procNo = 21
procNo = 22
procNo = 19
procNo = 26
procNo = 11
procNo = 27
procNo = 34
procNo = 6
procNo = 36
procNo = 40
procNo = 38
procNo = 5
procNo = 37
procNo = 44
procNo = 28
procNo = 25
procNo = 41
procNo = 23
procNo = 7
procNo = 35
procNo = 46
procNo = 47
procNo = 42
procNo = 39
procNo = 29
procNo = 45
procNo = 43
procNo = 30
procNo = 31
Courant Number mean: 4.134521852232651e-11 max: 1.042519685039371e-05

Starting time loop

Courant Number mean: 4.134521852232651e-11 max: 1.042519685039371e-05
deltaT = 1.2e-09
Time = 1.2e-09

PIMPLE: iteration 1
diagonal:  Solving for rho, Initial residual = 0, Final residual = 0, No Iterations 0
DILUPBiCG:  Solving for Ux, Initial residual = 1, Final residual = 2.002681442061028e-21, No Iterations 2
DILUPBiCG:  Solving for Uy, Initial residual = 1, Final residual = 3.337724948956399e-21, No Iterations 2
DILUPBiCG:  Solving for Uz, Initial residual = 1, Final residual = 3.67149014138468e-21, No Iterations 2
DILUPBiCG:  Solving for e, Initial residual = 0.9999999987407729, Final residual = 1.476285052270801e-20, No Iterations 2
DILUPBiCG:  Solving for p, Initial residual = 0.9999991514882776, Final residual = 2.465818788351908e-10, No Iterations 1
diagonal:  Solving for rho, Initial residual = 0, Final residual = 0, No Iterations 0
time step continuity errors : sum local = 3.553785999461402e-16, global = 3.553730679145525e-16, cumulative = 3.553730679145525e-16
DILUPBiCG:  Solving for p, Initial residual = 1.144881182779609e-07, Final residual = 5.494712723687517e-17, No Iterations 1
diagonal:  Solving for rho, Initial residual = 0, Final residual = 0, No Iterations 0
time step continuity errors : sum local = 3.049548352485447e-16, global = 3.040831183388709e-16, cumulative = 6.594561862534234e-16
DILUPBiCG:  Solving for k, Initial residual = 0.9999999969933518, Final residual = 3.671600387127004e-21, No Iterations 2
ExecutionTime = 1.32 s  ClockTime = 67 s

ORIG_COMP_STEP = 56.04221320152283
ORIG_IO_STEP = 0.3812558650970459
Courant Number mean: 4.961438652000383e-11 max: 1.251009538926646e-05
deltaT = 1.44e-09
Time = 2.64e-09

PIMPLE: iteration 1
diagonal:  Solving for rho, Initial residual = 0, Final residual = 0, No Iterations 0
DILUPBiCG:  Solving for Ux, Initial residual = 0.3748998142753897, Final residual = 4.558663655382061e-22, No Iterations 2
DILUPBiCG:  Solving for Uy, Initial residual = 0.3748998142119857, Final residual = 7.582056105832603e-22, No Iterations 2
DILUPBiCG:  Solving for Uz, Initial residual = 0.2307657613389893, Final residual = 5.154578120873181e-22, No Iterations 2
DILUPBiCG:  Solving for e, Initial residual = 0.2307604967773839, Final residual = 2.067214487156708e-21, No Iterations 2
DILUPBiCG:  Solving for p, Initial residual = 0.2307643588648433, Final residual = 3.430968484307892e-11, No Iterations 1
diagonal:  Solving for rho, Initial residual = 0, Final residual = 0, No Iterations 0
time step continuity errors : sum local = 1.59107416818432e-16, global = 1.260747185796171e-16, cumulative = 7.855309048330405e-16
DILUPBiCG:  Solving for p, Initial residual = 9.054364449198628e-08, Final residual = 5.72283961174998e-16, No Iterations 1
diagonal:  Solving for rho, Initial residual = 0, Final residual = 0, No Iterations 0
time step continuity errors : sum local = 1.265152651967734e-16, global = 9.130594693648663e-17, cumulative = 8.768368517695272e-16
DILUPBiCG:  Solving for k, Initial residual = 0.6960455081138318, Final residual = 1.556001652891421e-21, No Iterations 2
ExecutionTime = 3 s  ClockTime = 150 s

ORIG_COMP_STEP = 81.82651877403259
ORIG_IO_STEP = 1.961745023727417
Courant Number mean: 5.953744325482773e-11 max: 1.501191174373759e-05
deltaT = 1.728e-09
Time = 4.368e-09

PIMPLE: iteration 1
diagonal:  Solving for rho, Initial residual = 0, Final residual = 0, No Iterations 0
DILUPBiCG:  Solving for Ux, Initial residual = 0.323098999630029, Final residual = 5.753440393327172e-22, No Iterations 2
DILUPBiCG:  Solving for Uy, Initial residual = 0.3230989979217402, Final residual = 9.522312792948136e-22, No Iterations 2
DILUPBiCG:  Solving for Uz, Initial residual = 0.1406204733855008, Final residual = 4.621047651737794e-22, No Iterations 2
DILUPBiCG:  Solving for e, Initial residual = 0.1406159844917805, Final residual = 1.841858966393672e-21, No Iterations 2
DILUPBiCG:  Solving for p, Initial residual = 0.1406195887926888, Final residual = 3.010919890276444e-11, No Iterations 1
diagonal:  Solving for rho, Initial residual = 0, Final residual = 0, No Iterations 0
time step continuity errors : sum local = 4.599088682835549e-16, global = 4.545039796605396e-16, cumulative = 1.331340831430067e-15
DILUPBiCG:  Solving for p, Initial residual = 5.20947382393171e-08, Final residual = 7.692475483722121e-16, No Iterations 1
diagonal:  Solving for rho, Initial residual = 0, Final residual = 0, No Iterations 0
time step continuity errors : sum local = 4.478129874569155e-16, global = 4.468547270702798e-16, cumulative = 1.778195558500347e-15
DILUPBiCG:  Solving for k, Initial residual = 0.4777461072120744, Final residual = 1.572807949240445e-21, No Iterations 2
ExecutionTime = 4.54 s  ClockTime = 226 s

ORIG_COMP_STEP = 74.27326393127441
ORIG_IO_STEP = 1.902103900909424
Courant Number mean: 7.144519100114715e-11 max: 1.801400228211915e-05
deltaT = 2.0736e-09
Time = 6.4416e-09

PIMPLE: iteration 1
diagonal:  Solving for rho, Initial residual = 0, Final residual = 0, No Iterations 0
DILUPBiCG:  Solving for Ux, Initial residual = 0.2861786292105454, Final residual = 7.548523112684863e-22, No Iterations 2
DILUPBiCG:  Solving for Uy, Initial residual = 0.2861786279250068, Final residual = 1.239160481892236e-21, No Iterations 2
DILUPBiCG:  Solving for Uz, Initial residual = 0.1060847875738669, Final residual = 5.202702191725769e-22, No Iterations 2
DILUPBiCG:  Solving for e, Initial residual = 0.1060800472313214, Final residual = 2.052844927486595e-21, No Iterations 2
DILUPBiCG:  Solving for p, Initial residual = 0.1060835150831364, Final residual = 3.271384109983838e-11, No Iterations 1
diagonal:  Solving for rho, Initial residual = 0, Final residual = 0, No Iterations 0
time step continuity errors : sum local = 1.601991960189145e-16, global = -1.120084499569327e-16, cumulative = 1.666187108543414e-15
DILUPBiCG:  Solving for p, Initial residual = 2.620399414114385e-08, Final residual = 2.624823634155516e-15, No Iterations 1
diagonal:  Solving for rho, Initial residual = 0, Final residual = 0, No Iterations 0
time step continuity errors : sum local = 1.659159880828566e-16, global = -1.312643736281396e-16, cumulative = 1.534922734915274e-15
DILUPBiCG:  Solving for k, Initial residual = 0.3500191126218611, Final residual = 1.722680595991216e-21, No Iterations 2
ExecutionTime = 5.88 s  ClockTime = 300 s

ORIG_COMP_STEP = 72.660001039505
ORIG_IO_STEP = 2.28765606880188
Courant Number mean: 8.573460376546508e-11 max: 2.161638276602909e-05
deltaT = 2.48832e-09
Time = 8.92992e-09

PIMPLE: iteration 1
diagonal:  Solving for rho, Initial residual = 0, Final residual = 0, No Iterations 0
DILUPBiCG:  Solving for Ux, Initial residual = 0.2580203274912876, Final residual = 1.020457141617592e-21, No Iterations 2
DILUPBiCG:  Solving for Uy, Initial residual = 0.2580203266947301, Final residual = 1.656009992293223e-21, No Iterations 2
DILUPBiCG:  Solving for Uz, Initial residual = 0.08806061632318375, Final residual = 6.541735424849684e-22, No Iterations 2
DILUPBiCG:  Solving for e, Initial residual = 0.08805515542308032, Final residual = 2.54551118264061e-21, No Iterations 2
DILUPBiCG:  Solving for p, Initial residual = 0.08805904319045381, Final residual = 3.911216802795835e-11, No Iterations 1
diagonal:  Solving for rho, Initial residual = 0, Final residual = 0, No Iterations 0
time step continuity errors : sum local = 4.948998586310849e-16, global = -4.945601543865166e-16, cumulative = 1.040362580528758e-15
DILUPBiCG:  Solving for p, Initial residual = 2.118063917917909e-08, Final residual = 3.914521903863419e-15, No Iterations 1
diagonal:  Solving for rho, Initial residual = 0, Final residual = 0, No Iterations 0
time step continuity errors : sum local = 5.175983936821633e-16, global = -5.175976435761857e-16, cumulative = 5.227649369525721e-16
DILUPBiCG:  Solving for k, Initial residual = 0.2753458403987187, Final residual = 2.058378677437371e-21, No Iterations 2
ExecutionTime = 7.29 s  ClockTime = 380 s

ORIG_COMP_STEP = 76.89478492736816
ORIG_IO_STEP = 2.218078851699829
Courant Number mean: 1.028820665862334e-10 max: 2.593905497807935e-05
deltaT = 2.985983999999999e-09
Time = 1.19159e-08

PIMPLE: iteration 1
diagonal:  Solving for rho, Initial residual = 0, Final residual = 0, No Iterations 0
DILUPBiCG:  Solving for Ux, Initial residual = 0.236917445524324, Final residual = 1.423435737983944e-21, No Iterations 2
DILUPBiCG:  Solving for Uy, Initial residual = 0.236917445059656, Final residual = 2.275830133891994e-21, No Iterations 2
DILUPBiCG:  Solving for Uz, Initial residual = 0.07713770423081717, Final residual = 8.815365746168726e-22, No Iterations 2
DILUPBiCG:  Solving for e, Initial residual = 0.07713127472432932, Final residual = 3.370612425382274e-21, No Iterations 2
DILUPBiCG:  Solving for p, Initial residual = 0.0771359207431507, Final residual = 4.934864258417072e-11, No Iterations 1
diagonal:  Solving for rho, Initial residual = 0, Final residual = 0, No Iterations 0
time step continuity errors : sum local = 5.161314206707835e-16, global = -5.154499493903776e-16, cumulative = 7.314987562194488e-18
DILUPBiCG:  Solving for p, Initial residual = 1.556252139737655e-08, Final residual = 1.306214464953614e-14, No Iterations 1
diagonal:  Solving for rho, Initial residual = 0, Final residual = 0, No Iterations 0
time step continuity errors : sum local = 5.33817466286068e-16, global = -5.337856805452786e-16, cumulative = -5.264706929830841e-16
DILUPBiCG:  Solving for k, Initial residual = 0.2286511800956952, Final residual = 2.640596525148402e-21, No Iterations 2
ExecutionTime = 8.67 s  ClockTime = 460 s

ORIG_COMP_STEP = 78.41297101974487
ORIG_IO_STEP = 2.142214059829712
Courant Number mean: 1.234592653244742e-10 max: 3.112599647639451e-05
deltaT = 3.583180799999999e-09
Time = 1.54991e-08

PIMPLE: iteration 1
diagonal:  Solving for rho, Initial residual = 0, Final residual = 0, No Iterations 0
DILUPBiCG:  Solving for Ux, Initial residual = 0.2210719251155104, Final residual = 2.046703122965477e-21, No Iterations 2
DILUPBiCG:  Solving for Uy, Initial residual = 0.22107192480959, Final residual = 3.213029202155578e-21, No Iterations 2
DILUPBiCG:  Solving for Uz, Initial residual = 0.0699101888343623, Final residual = 1.249210868958187e-21, No Iterations 2
DILUPBiCG:  Solving for e, Initial residual = 0.06990251884597959, Final residual = 4.677940590396291e-21, No Iterations 2
DILUPBiCG:  Solving for p, Initial residual = 0.06990808781704504, Final residual = 6.44255544188856e-11, No Iterations 1
diagonal:  Solving for rho, Initial residual = 0, Final residual = 0, No Iterations 0
time step continuity errors : sum local = 2.077228633029773e-16, global = -1.953728372061387e-16, cumulative = -7.218435301892228e-16
DILUPBiCG:  Solving for p, Initial residual = 1.041843961589761e-08, Final residual = 3.197265270010344e-14, No Iterations 1
diagonal:  Solving for rho, Initial residual = 0, Final residual = 0, No Iterations 0
time step continuity errors : sum local = 1.993206449636544e-16, global = -1.855668892939046e-16, cumulative = -9.074104194831273e-16
DILUPBiCG:  Solving for k, Initial residual = 0.197564435676624, Final residual = 3.589368525876514e-21, No Iterations 2
ExecutionTime = 10.06 s  ClockTime = 542 s

ORIG_COMP_STEP = 79.75314807891846
ORIG_IO_STEP = 2.077095985412598
Courant Number mean: 1.481522578782154e-10 max: 3.734994500373929e-05
deltaT = 4.299816959999999e-09
Time = 1.97989e-08

PIMPLE: iteration 1
diagonal:  Solving for rho, Initial residual = 0, Final residual = 0, No Iterations 0
DILUPBiCG:  Solving for Ux, Initial residual = 0.2090424908485897, Final residual = 3.028830996464317e-21, No Iterations 2
DILUPBiCG:  Solving for Uy, Initial residual = 0.2090424906625455, Final residual = 4.653154416390583e-21, No Iterations 2
DILUPBiCG:  Solving for Uz, Initial residual = 0.06484578854922117, Final residual = 1.842960722465615e-21, No Iterations 2
DILUPBiCG:  Solving for e, Initial residual = 0.06483663608516582, Final residual = 6.739733619087095e-21, No Iterations 2
DILUPBiCG:  Solving for p, Initial residual = 0.06484328904711312, Final residual = 8.608821484919538e-11, No Iterations 1
diagonal:  Solving for rho, Initial residual = 0, Final residual = 0, No Iterations 0
time step continuity errors : sum local = 1.92735605166972e-16, global = -1.733772451696399e-16, cumulative = -1.080787664652767e-15
DILUPBiCG:  Solving for p, Initial residual = 9.148058454223321e-09, Final residual = 1.227295552609716e-14, No Iterations 1
diagonal:  Solving for rho, Initial residual = 0, Final residual = 0, No Iterations 0
time step continuity errors : sum local = 2.06095039496158e-16, global = -1.960090207683069e-16, cumulative = -1.276796685421074e-15
DILUPBiCG:  Solving for k, Initial residual = 0.175814137368334, Final residual = 5.124634351448543e-21, No Iterations 2
ExecutionTime = 11.62 s  ClockTime = 631 s

ORIG_COMP_STEP = 86.47574901580811
ORIG_IO_STEP = 2.045583009719849
Courant Number mean: 1.777843652403962e-10 max: 4.481813520089824e-05
deltaT = 5.159780351999998e-09
Time = 2.49587e-08

PIMPLE: iteration 1
diagonal:  Solving for rho, Initial residual = 0, Final residual = 0, No Iterations 0
DILUPBiCG:  Solving for Ux, Initial residual = 0.1997885780580373, Final residual = 4.607306206630839e-21, No Iterations 2
DILUPBiCG:  Solving for Uy, Initial residual = 0.1997885779172872, Final residual = 6.905132302226e-21, No Iterations 2
DILUPBiCG:  Solving for Uz, Initial residual = 0.06115283157967528, Final residual = 2.814087069246243e-21, No Iterations 2
DILUPBiCG:  Solving for e, Initial residual = 0.06114190953012114, Final residual = 1.002778719671385e-20, No Iterations 2
DILUPBiCG:  Solving for p, Initial residual = 0.06114986464741724, Final residual = 1.169672488066563e-10, No Iterations 1
diagonal:  Solving for rho, Initial residual = 0, Final residual = 0, No Iterations 0
time step continuity errors : sum local = 1.647694508436851e-16, global = -1.22372992234422e-16, cumulative = -1.399169677655496e-15
DILUPBiCG:  Solving for p, Initial residual = 7.101809516707262e-09, Final residual = 9.819631032258988e-15, No Iterations 1
diagonal:  Solving for rho, Initial residual = 0, Final residual = 0, No Iterations 0
time step continuity errors : sum local = 1.645071012784102e-16, global = -1.440592123584422e-16, cumulative = -1.543228890013938e-15
DILUPBiCG:  Solving for k, Initial residual = 0.1599977546893658, Final residual = 7.641698951872333e-21, No Iterations 2
ExecutionTime = 13.13 s  ClockTime = 714 s

ORIG_COMP_STEP = 81.66773891448975
ORIG_IO_STEP = 1.676206111907959
Courant Number mean: 2.133436485729229e-10 max: 5.377917595588211e-05
deltaT = 6.191736422399998e-09
Time = 3.11504e-08

PIMPLE: iteration 1
diagonal:  Solving for rho, Initial residual = 0, Final residual = 0, No Iterations 0
DILUPBiCG:  Solving for Ux, Initial residual = 0.1925787643206989, Final residual = 7.197405933785444e-21, No Iterations 2
DILUPBiCG:  Solving for Uy, Initial residual = 0.1925787642171584, Final residual = 1.049433525490686e-20, No Iterations 2
DILUPBiCG:  Solving for Uz, Initial residual = 0.05838079439771935, Final residual = 4.430818832352387e-21, No Iterations 2
DILUPBiCG:  Solving for e, Initial residual = 0.05836763755928467, Final residual = 1.536408421644362e-20, No Iterations 2
DILUPBiCG:  Solving for p, Initial residual = 0.05837727307605235, Final residual = 1.608986068866383e-10, No Iterations 1
diagonal:  Solving for rho, Initial residual = 0, Final residual = 0, No Iterations 0
time step continuity errors : sum local = 3.712594677398794e-16, global = 3.696246117648926e-16, cumulative = -1.173604278249046e-15
DILUPBiCG:  Solving for p, Initial residual = 5.982445516520167e-09, Final residual = 8.710795285527968e-15, No Iterations 1
diagonal:  Solving for rho, Initial residual = 0, Final residual = 0, No Iterations 0
time step continuity errors : sum local = 3.33744651963367e-16, global = 3.301905560851911e-16, cumulative = -8.434137221638544e-16
DILUPBiCG:  Solving for k, Initial residual = 0.1481446315312044, Final residual = 1.185827415175029e-20, No Iterations 2
ExecutionTime = 14.44 s  ClockTime = 787 s

ORIG_COMP_STEP = 71.21764898300171
ORIG_IO_STEP = 2.055828094482422
Courant Number mean: 2.560158942278372e-10 max: 6.453129383319028e-05
deltaT = 7.430083706879997e-09
Time = 3.85805e-08

PIMPLE: iteration 1
diagonal:  Solving for rho, Initial residual = 0, Final residual = 0, No Iterations 0
DILUPBiCG:  Solving for Ux, Initial residual = 0.1868977424175845, Final residual = 1.153879234993447e-20, No Iterations 2
DILUPBiCG:  Solving for Uy, Initial residual = 0.1868977423440149, Final residual = 1.6331954822386e-20, No Iterations 2
DILUPBiCG:  Solving for Uz, Initial residual = 0.05625427123173568, Final residual = 7.175300492227367e-21, No Iterations 2
DILUPBiCG:  Solving for e, Initial residual = 0.0562385424946083, Final residual = 2.420476680841974e-20, No Iterations 2
DILUPBiCG:  Solving for p, Initial residual = 0.05625005890205558, Final residual = 2.234240814856526e-10, No Iterations 1
diagonal:  Solving for rho, Initial residual = 0, Final residual = 0, No Iterations 0
time step continuity errors : sum local = 2.61539872474231e-16, global = 2.399868899486414e-16, cumulative = -6.03426832215213e-16
DILUPBiCG:  Solving for p, Initial residual = 5.297281701345008e-09, Final residual = 8.826790609507919e-15, No Iterations 1
diagonal:  Solving for rho, Initial residual = 0, Final residual = 0, No Iterations 0
time step continuity errors : sum local = 2.147984250486047e-16, global = 1.894614391654556e-16, cumulative = -4.139653930497574e-16
DILUPBiCG:  Solving for k, Initial residual = 0.139047553627952, Final residual = 1.910342731130588e-20, No Iterations 2
ExecutionTime = 16.12 s  ClockTime = 878 s

ORIG_COMP_STEP = 88.65417194366455
ORIG_IO_STEP = 1.957873106002808
Courant Number mean: 3.072242142500229e-10 max: 7.743221168149526e-05
deltaT = 8.916100448255996e-09
Time = 4.74966e-08

PIMPLE: iteration 1
diagonal:  Solving for rho, Initial residual = 0, Final residual = 0, No Iterations 0
DILUPBiCG:  Solving for Ux, Initial residual = 0.1823776200704966, Final residual = 1.897157888481932e-20, No Iterations 2
DILUPBiCG:  Solving for Uy, Initial residual = 0.1823776200150733, Final residual = 2.602837769133393e-20, No Iterations 2
DILUPBiCG:  Solving for Uz, Initial residual = 0.05459535196331513, Final residual = 1.192603568319738e-20, No Iterations 2
DILUPBiCG:  Solving for e, Initial residual = 0.05457654367256458, Final residual = 3.918150902343659e-20, No Iterations 2
DILUPBiCG:  Solving for p, Initial residual = 0.05459030719533298, Final residual = 3.125293618997437e-10, No Iterations 1
diagonal:  Solving for rho, Initial residual = 0, Final residual = 0, No Iterations 0
time step continuity errors : sum local = 2.599698535938414e-16, global = 2.433607258029262e-16, cumulative = -1.706046672468312e-16
DILUPBiCG:  Solving for p, Initial residual = 4.32108569271743e-09, Final residual = 8.401567393429687e-15, No Iterations 1
diagonal:  Solving for rho, Initial residual = 0, Final residual = 0, No Iterations 0
time step continuity errors : sum local = 2.275012351708338e-16, global = 2.112152155287049e-16, cumulative = 4.061054828187375e-17
DILUPBiCG:  Solving for k, Initial residual = 0.1319313137360361, Final residual = 3.189465818938457e-20, No Iterations 2
ExecutionTime = 17.73 s  ClockTime = 959 s

ORIG_COMP_STEP = 79.40685296058655
ORIG_IO_STEP = 2.097999095916748
Courant Number mean: 3.686765957848609e-10 max: 9.291098387932467e-05
deltaT = 1.069932053790719e-08
Time = 5.81959e-08

PIMPLE: iteration 1
diagonal:  Solving for rho, Initial residual = 0, Final residual = 0, No Iterations 0
DILUPBiCG:  Solving for Ux, Initial residual = 0.1787512734561917, Final residual = 3.19612663411383e-20, No Iterations 2
DILUPBiCG:  Solving for Uy, Initial residual = 0.1787512734272524, Final residual = 4.247995183308865e-20, No Iterations 2
DILUPBiCG:  Solving for Uz, Initial residual = 0.0532839588224123, Final residual = 2.030592752680217e-20, No Iterations 2
DILUPBiCG:  Solving for e, Initial residual = 0.05326145608940346, Final residual = 6.515038327754217e-20, No Iterations 2
DILUPBiCG:  Solving for p, Initial residual = 0.05327790886881324, Final residual = 4.397174926125619e-10, No Iterations 1
diagonal:  Solving for rho, Initial residual = 0, Final residual = 0, No Iterations 0
time step continuity errors : sum local = 2.846070372133655e-16, global = -2.530798955802953e-16, cumulative = -2.124693472984215e-16
DILUPBiCG:  Solving for p, Initial residual = 3.829985770394472e-09, Final residual = 8.885548989991664e-15, No Iterations 1
diagonal:  Solving for rho, Initial residual = 0, Final residual = 0, No Iterations 0
time step continuity errors : sum local = 2.462691677402855e-16, global = -2.420852641412485e-16, cumulative = -4.5455461143967e-16
DILUPBiCG:  Solving for k, Initial residual = 0.1262780099102612, Final residual = 5.511159413943187e-20, No Iterations 2
ExecutionTime = 19.15 s  ClockTime = 1042 s

ORIG_COMP_STEP = 80.75397610664368
ORIG_IO_STEP = 2.124395132064819
Courant Number mean: 4.424230046865336e-10 max: 0.0001114821715747901
deltaT = 1.283918464548863e-08
Time = 7.10351e-08

PIMPLE: iteration 1
diagonal:  Solving for rho, Initial residual = 0, Final residual = 0, No Iterations 0
DILUPBiCG:  Solving for Ux, Initial residual = 0.1758213261613379, Final residual = 5.510411756624293e-20, No Iterations 2
DILUPBiCG:  Solving for Uy, Initial residual = 0.1758213261441361, Final residual = 7.120653494464143e-20, No Iterations 2
DILUPBiCG:  Solving for Uz, Initial residual = 0.05223611232274576, Final residual = 3.53488363215859e-20, No Iterations 2
DILUPBiCG:  Solving for e, Initial residual = 0.05220917652905684, Final residual = 1.112630868209506e-19, No Iterations 2
DILUPBiCG:  Solving for p, Initial residual = 0.05222888126670349, Final residual = 6.215662574422481e-10, No Iterations 1
diagonal:  Solving for rho, Initial residual = 0, Final residual = 0, No Iterations 0
time step continuity errors : sum local = 1.616913903530085e-16, global = -4.943193678292457e-17, cumulative = -5.039865482225946e-16
DILUPBiCG:  Solving for p, Initial residual = 2.84657483150969e-09, Final residual = 7.787220834904569e-15, No Iterations 1
diagonal:  Solving for rho, Initial residual = 0, Final residual = 0, No Iterations 0
time step continuity errors : sum local = 1.207943468649748e-16, global = -5.635902480486661e-17, cumulative = -5.603455730274612e-16
DILUPBiCG:  Solving for k, Initial residual = 0.1217298445240696, Final residual = 9.843126228831464e-20, No Iterations 2
ExecutionTime = 20.64 s  ClockTime = 1121 s

ORIG_COMP_STEP = 76.66396617889404
ORIG_IO_STEP = 1.868374109268188
Courant Number mean: 5.309239790032225e-10 max: 0.0001337628148340935
deltaT = 1.540702157458636e-08
Time = 8.64421e-08

PIMPLE: iteration 1
diagonal:  Solving for rho, Initial residual = 0, Final residual = 0, No Iterations 0
DILUPBiCG:  Solving for Ux, Initial residual = 0.1734394890345807, Final residual = 9.785813740253061e-20, No Iterations 2
DILUPBiCG:  Solving for Uy, Initial residual = 0.1734394890243175, Final residual = 1.247185446329563e-19, No Iterations 2
DILUPBiCG:  Solving for Uz, Initial residual = 0.05139132800945617, Final residual = 6.278111687701687e-20, No Iterations 2
DILUPBiCG:  Solving for e, Initial residual = 0.0513590764641528, Final residual = 1.951335973503001e-19, No Iterations 2
DILUPBiCG:  Solving for p, Initial residual = 0.05138268206723557, Final residual = 8.819857490858952e-10, No Iterations 1
diagonal:  Solving for rho, Initial residual = 0, Final residual = 0, No Iterations 0
time step continuity errors : sum local = 3.321502533109936e-16, global = 3.219253712705321e-16, cumulative = -2.384202017569291e-16
DILUPBiCG:  Solving for p, Initial residual = 2.895406688204711e-09, Final residual = 9.297291896370123e-15, No Iterations 1
diagonal:  Solving for rho, Initial residual = 0, Final residual = 0, No Iterations 0
time step continuity errors : sum local = 3.060885245134445e-16, global = 2.995582894415662e-16, cumulative = 6.113808768463713e-17
DILUPBiCG:  Solving for k, Initial residual = 0.1180324497090722, Final residual = 1.814735027640094e-19, No Iterations 2
ExecutionTime = 22.02 s  ClockTime = 1201 s

ORIG_COMP_STEP = 78.21634292602539
ORIG_IO_STEP = 2.184251070022583
Courant Number mean: 6.371330497448814e-10 max: 0.0001604927456871203
deltaT = 1.848842588950363e-08
Time = 1.04931e-07

PIMPLE: iteration 1
diagonal:  Solving for rho, Initial residual = 0, Final residual = 0, No Iterations 0
DILUPBiCG:  Solving for Ux, Initial residual = 0.171492629490204, Final residual = 1.848110053474273e-19, No Iterations 2
DILUPBiCG:  Solving for Uy, Initial residual = 0.1714926294798616, Final residual = 2.262319482008167e-19, No Iterations 2
DILUPBiCG:  Solving for Uz, Initial residual = 0.05070495616627799, Final residual = 1.134792483255091e-19, No Iterations 2
DILUPBiCG:  Solving for e, Initial residual = 0.05066632775276378, Final residual = 3.513715040992248e-19, No Iterations 2
DILUPBiCG:  Solving for p, Initial residual = 0.05069462491268994, Final residual = 1.255496553548186e-09, No Iterations 1
diagonal:  Solving for rho, Initial residual = 0, Final residual = 0, No Iterations 0
time step continuity errors : sum local = 3.456240781990701e-16, global = 3.423815576105054e-16, cumulative = 4.035196452951426e-16
DILUPBiCG:  Solving for p, Initial residual = 2.688507784846426e-09, Final residual = 1.031166864053155e-14, No Iterations 1
diagonal:  Solving for rho, Initial residual = 0, Final residual = 0, No Iterations 0
time step continuity errors : sum local = 2.729961457797217e-16, global = 2.702952954658736e-16, cumulative = 6.738149407610162e-16
DILUPBiCG:  Solving for k, Initial residual = 0.1150004753506283, Final residual = 3.44866437382179e-19, No Iterations 2
ExecutionTime = 23.58 s  ClockTime = 1286 s

ORIG_COMP_STEP = 82.64333891868591
ORIG_IO_STEP = 1.851972103118896
Courant Number mean: 7.645958176262456e-10 max: 0.0001925588890697097
deltaT = 2.218611106740435e-08
Time = 1.27117e-07

PIMPLE: iteration 1
diagonal:  Solving for rho, Initial residual = 0, Final residual = 0, No Iterations 0
DILUPBiCG:  Solving for Ux, Initial residual = 0.1698932270772215, Final residual = 3.659740982290588e-19, No Iterations 2
DILUPBiCG:  Solving for Uy, Initial residual = 0.169893227069516, Final residual = 4.272925240085884e-19, No Iterations 2
DILUPBiCG:  Solving for Uz, Initial residual = 0.05014333638839621, Final residual = 2.08155911418572e-19, No Iterations 2
DILUPBiCG:  Solving for e, Initial residual = 0.05009706535983217, Final residual = 6.493554950137296e-19, No Iterations 2
DILUPBiCG:  Solving for p, Initial residual = 0.05013099715849883, Final residual = 1.791994431634939e-09, No Iterations 1
diagonal:  Solving for rho, Initial residual = 0, Final residual = 0, No Iterations 0
time step continuity errors : sum local = 4.591911997286131e-16, global = 4.587188204938911e-16, cumulative = 1.132533761254907e-15
DILUPBiCG:  Solving for p, Initial residual = 2.810956575341304e-09, Final residual = 1.289370399427165e-14, No Iterations 1
diagonal:  Solving for rho, Initial residual = 0, Final residual = 0, No Iterations 0
time step continuity errors : sum local = 3.712179745572749e-16, global = 3.707870386774036e-16, cumulative = 1.503320799932311e-15
DILUPBiCG:  Solving for k, Initial residual = 0.1124959448082441, Final residual = 6.744415088426545e-19, No Iterations 2
ExecutionTime = 25.33 s  ClockTime = 1383 s

ORIG_COMP_STEP = 94.90947413444519
ORIG_IO_STEP = 1.861588001251221
Courant Number mean: 9.175691189961893e-10 max: 0.0002310243204400707
deltaT = 2.662333328088522e-08
Time = 1.5374e-07

PIMPLE: iteration 1
diagonal:  Solving for rho, Initial residual = 0, Final residual = 0, No Iterations 0
DILUPBiCG:  Solving for Ux, Initial residual = 0.1685727122353742, Final residual = 7.415729634618569e-19, No Iterations 2
DILUPBiCG:  Solving for Uy, Initial residual = 0.1685727122268547, Final residual = 8.318418402773335e-19, No Iterations 2
DILUPBiCG:  Solving for Uz, Initial residual = 0.04968062508160352, Final residual = 3.861311772021203e-19, No Iterations 2
DILUPBiCG:  Solving for e, Initial residual = 0.04962520083371538, Final residual = 1.230901455278796e-18, No Iterations 2
DILUPBiCG:  Solving for p, Initial residual = 0.04966589960871118, Final residual = 2.563689714814043e-09, No Iterations 1
diagonal:  Solving for rho, Initial residual = 0, Final residual = 0, No Iterations 0
time step continuity errors : sum local = 3.721797502372727e-16, global = 3.080079971024062e-16, cumulative = 1.811328797034717e-15
DILUPBiCG:  Solving for p, Initial residual = 3.284654797012645e-09, Final residual = 1.806279654055895e-14, No Iterations 1
diagonal:  Solving for rho, Initial residual = 0, Final residual = 0, No Iterations 0
time step continuity errors : sum local = 1.53150120109993e-16, global = 1.062609960168558e-16, cumulative = 1.917589793051573e-15
DILUPBiCG:  Solving for k, Initial residual = 0.1104142140073453, Final residual = 1.354950319356951e-18, No Iterations 2
ExecutionTime = 26.69 s  ClockTime = 1462 s

ORIG_COMP_STEP = 76.96246600151062
ORIG_IO_STEP = 2.274198055267334
Courant Number mean: 1.101164464446943e-09 max: 0.0002771629928158597
deltaT = 3.194799993706226e-08
Time = 1.85688e-07

PIMPLE: iteration 1
diagonal:  Solving for rho, Initial residual = 0, Final residual = 0, No Iterations 0
DILUPBiCG:  Solving for Ux, Initial residual = 0.1674767346718545, Final residual = 1.526093034829822e-18, No Iterations 2
DILUPBiCG:  Solving for Uy, Initial residual = 0.167476734663791, Final residual = 1.669443909065249e-18, No Iterations 2
DILUPBiCG:  Solving for Uz, Initial residual = 0.04929665421044205, Final residual = 7.211933095147701e-19, No Iterations 2
DILUPBiCG:  Solving for e, Initial residual = 0.04923026671067269, Final residual = 2.391351434393923e-18, No Iterations 2
DILUPBiCG:  Solving for p, Initial residual = 0.04927910102270117, Final residual = 3.675235685393041e-09, No Iterations 1
diagonal:  Solving for rho, Initial residual = 0, Final residual = 0, No Iterations 0
time step continuity errors : sum local = 6.853768848553518e-16, global = 5.16689867147934e-17, cumulative = 1.969258779766367e-15
DILUPBiCG:  Solving for p, Initial residual = 4.470344294628745e-09, Final residual = 2.953407352487421e-14, No Iterations 1
diagonal:  Solving for rho, Initial residual = 0, Final residual = 0, No Iterations 0
time step continuity errors : sum local = 3.966793352799922e-16, global = -3.896135246015755e-16, cumulative = 1.579645255164791e-15
DILUPBiCG:  Solving for k, Initial residual = 0.1086746108241058, Final residual = 2.791022572949135e-18, No Iterations 2
ExecutionTime = 28.04 s  ClockTime = 1544 s

ORIG_COMP_STEP = 80.06754612922668
ORIG_IO_STEP = 2.054947137832642
Courant Number mean: 1.321520874908969e-09 max: 0.0003325012164610563
deltaT = 3.833759992447472e-08
Time = 2.24026e-07

PIMPLE: iteration 1
diagonal:  Solving for rho, Initial residual = 0, Final residual = 0, No Iterations 0
DILUPBiCG:  Solving for Ux, Initial residual = 0.1665617424398966, Final residual = 3.191658163753139e-18, No Iterations 2
DILUPBiCG:  Solving for Uy, Initial residual = 0.1665617424323304, Final residual = 3.423195977708709e-18, No Iterations 2
DILUPBiCG:  Solving for Uz, Initial residual = 0.04897544614709675, Final residual = 1.348352359884277e-18, No Iterations 2
DILUPBiCG:  Solving for e, Initial residual = 0.0488959404444344, Final residual = 4.756791229266922e-18, No Iterations 2
DILUPBiCG:  Solving for p, Initial residual = 0.04895454422055494, Final residual = 5.278547684750993e-09, No Iterations 1
diagonal:  Solving for rho, Initial residual = 0, Final residual = 0, No Iterations 0
time step continuity errors : sum local = 7.810029694843276e-16, global = 7.023417011026723e-16, cumulative = 2.281986956267464e-15
DILUPBiCG:  Solving for p, Initial residual = 5.580821237885565e-09, Final residual = 4.447441790281842e-14, No Iterations 1
diagonal:  Solving for rho, Initial residual = 0, Final residual = 0, No Iterations 0
time step continuity errors : sum local = 1.102203359679508e-16, global = 2.499882834971539e-17, cumulative = 2.306985784617179e-15
DILUPBiCG:  Solving for k, Initial residual = 0.1072140410271765, Final residual = 5.88306828171818e-18, No Iterations 2
ExecutionTime = 29.43 s  ClockTime = 1626 s

ORIG_COMP_STEP = 80.10811305046082
ORIG_IO_STEP = 1.851842164993286
Courant Number mean: 1.586013437855114e-09 max: 0.0003988671771477065
deltaT = 4.600511990936966e-08
Time = 2.70031e-07

PIMPLE: iteration 1
diagonal:  Solving for rho, Initial residual = 0, Final residual = 0, No Iterations 0
DILUPBiCG:  Solving for Ux, Initial residual = 0.1657924609810475, Final residual = 6.804124583568712e-18, No Iterations 2
DILUPBiCG:  Solving for Uy, Initial residual = 0.1657924609746321, Final residual = 7.186516211421373e-18, No Iterations 2
DILUPBiCG:  Solving for Uz, Initial residual = 0.04870415760728183, Final residual = 2.50236320306971e-18, No Iterations 2
DILUPBiCG:  Solving for e, Initial residual = 0.04860896493784623, Final residual = 9.676840574666388e-18, No Iterations 2
DILUPBiCG:  Solving for p, Initial residual = 0.04867930439955726, Final residual = 7.594548713686411e-09, No Iterations 1
diagonal:  Solving for rho, Initial residual = 0, Final residual = 0, No Iterations 0
time step continuity errors : sum local = 1.331861047346806e-15, global = 8.610294743274039e-16, cumulative = 3.168015258944583e-15
DILUPBiCG:  Solving for p, Initial residual = 7.477516327116482e-09, Final residual = 7.205829940859099e-14, No Iterations 1
diagonal:  Solving for rho, Initial residual = 0, Final residual = 0, No Iterations 0
time step continuity errors : sum local = 2.468884696607797e-16, global = -2.449158785089995e-16, cumulative = 2.923099380435583e-15
DILUPBiCG:  Solving for k, Initial residual = 0.1059825243281635, Final residual = 1.266392811764829e-17, No Iterations 2
ExecutionTime = 30.81 s  ClockTime = 1708 s

ORIG_COMP_STEP = 80.30740213394165
ORIG_IO_STEP = 1.931329965591431
Courant Number mean: 1.903505456686602e-09 max: 0.0004784500217874339
deltaT = 5.520614389124359e-08
Time = 3.25237e-07

PIMPLE: iteration 1
diagonal:  Solving for rho, Initial residual = 0, Final residual = 0, No Iterations 0
DILUPBiCG:  Solving for Ux, Initial residual = 0.165140006847996, Final residual = 1.521670430750405e-17, No Iterations 2
DILUPBiCG:  Solving for Uy, Initial residual = 0.1651400068428806, Final residual = 1.569973361662436e-17, No Iterations 2
DILUPBiCG:  Solving for Uz, Initial residual = 0.04847231109025397, Final residual = 4.54925346417502e-18, No Iterations 2
DILUPBiCG:  Solving for e, Initial residual = 0.04835837372409548, Final residual = 2.010666340311009e-17, No Iterations 2
DILUPBiCG:  Solving for p, Initial residual = 0.04844278852893354, Final residual = 1.094517798303625e-08, No Iterations 1
diagonal:  Solving for rho, Initial residual = 0, Final residual = 0, No Iterations 0
time step continuity errors : sum local = 2.063558367564486e-15, global = 2.005861154914198e-15, cumulative = 4.92896053534978e-15
DILUPBiCG:  Solving for p, Initial residual = 1.064887408407532e-08, Final residual = 1.243592241713679e-13, No Iterations 1
diagonal:  Solving for rho, Initial residual = 0, Final residual = 0, No Iterations 0
time step continuity errors : sum local = 2.144177880651043e-16, global = 1.56512514776073e-16, cumulative = 5.085473050125853e-15
DILUPBiCG:  Solving for k, Initial residual = 0.1049399378606784, Final residual = 2.778329958404651e-17, No Iterations 2
ExecutionTime = 32.35 s  ClockTime = 1792 s

ORIG_COMP_STEP = 82.12421894073486
ORIG_IO_STEP = 1.76488208770752
Courant Number mean: 2.284654115132937e-09 max: 0.0005738703350687961
deltaT = 6.62473726694923e-08
Time = 3.91484e-07

PIMPLE: iteration 1
diagonal:  Solving for rho, Initial residual = 0, Final residual = 0, No Iterations 0
DILUPBiCG:  Solving for Ux, Initial residual = 0.1645804503849135, Final residual = 4.445029876593298e-17, No Iterations 2
DILUPBiCG:  Solving for Uy, Initial residual = 0.1645804503814046, Final residual = 4.532032700987443e-17, No Iterations 2
DILUPBiCG:  Solving for Uz, Initial residual = 0.0482712231401261, Final residual = 7.911151891267937e-18, No Iterations 2
DILUPBiCG:  Solving for e, Initial residual = 0.04813490621000922, Final residual = 4.261135587904506e-17, No Iterations 2
DILUPBiCG:  Solving for p, Initial residual = 0.04823621410739302, Final residual = 1.580069772552628e-08, No Iterations 1
diagonal:  Solving for rho, Initial residual = 0, Final residual = 0, No Iterations 0
time step continuity errors : sum local = 3.53023626147911e-15, global = 3.085430931931544e-15, cumulative = 8.170903982057396e-15
DILUPBiCG:  Solving for p, Initial residual = 1.507922966921544e-08, Final residual = 2.141032222997005e-13, No Iterations 1
diagonal:  Solving for rho, Initial residual = 0, Final residual = 0, No Iterations 0
time step continuity errors : sum local = 2.645605883996104e-16, global = -2.340489973336294e-16, cumulative = 7.936854984723767e-15
DILUPBiCG:  Solving for k, Initial residual = 0.1040539068324928, Final residual = 6.200107924990271e-17, No Iterations 2
ExecutionTime = 33.92 s  ClockTime = 1880 s

ORIG_COMP_STEP = 85.75117802619934
ORIG_IO_STEP = 2.691020965576172
Courant Number mean: 2.742282349479033e-09 max: 0.0006882641959664753
deltaT = 7.949684720339076e-08
Time = 4.70981e-07

PIMPLE: iteration 1
diagonal:  Solving for rho, Initial residual = 0, Final residual = 0, No Iterations 0
DILUPBiCG:  Solving for Ux, Initial residual = 0.1640937050715493, Final residual = 1.833955017878436e-16, No Iterations 2
DILUPBiCG:  Solving for Uy, Initial residual = 0.1640937050683171, Final residual = 1.847749262391242e-16, No Iterations 2
DILUPBiCG:  Solving for Uz, Initial residual = 0.04809355180483114, Final residual = 1.249722351797535e-17, No Iterations 2
DILUPBiCG:  Solving for e, Initial residual = 0.04793052143142657, Final residual = 9.197064833210155e-17, No Iterations 2
DILUPBiCG:  Solving for p, Initial residual = 0.04805212049107752, Final residual = 2.284986399902764e-08, No Iterations 1
diagonal:  Solving for rho, Initial residual = 0, Final residual = 0, No Iterations 0
time step continuity errors : sum local = 5.881035464858269e-15, global = 5.84565765541191e-15, cumulative = 1.378251264013568e-14
DILUPBiCG:  Solving for p, Initial residual = 2.17455658464391e-08, Final residual = 3.765849575573559e-13, No Iterations 1
diagonal:  Solving for rho, Initial residual = 0, Final residual = 0, No Iterations 0
time step continuity errors : sum local = 1.375682120985247e-16, global = 1.010731198422011e-16, cumulative = 1.388358575997788e-14
DILUPBiCG:  Solving for k, Initial residual = 0.1032979446776999, Final residual = 1.404755946692648e-16, No Iterations 2
ExecutionTime = 35.23 s  ClockTime = 1955 s

ORIG_COMP_STEP = 72.22623205184937
ORIG_IO_STEP = 1.167037010192871
Courant Number mean: 3.291833465891098e-09 max: 0.0008253834685292259
deltaT = 9.53962166440689e-08
Time = 5.66377e-07

PIMPLE: iteration 1
diagonal:  Solving for rho, Initial residual = 0, Final residual = 0, No Iterations 0
DILUPBiCG:  Solving for Ux, Initial residual = 0.1636626536201513, Final residual = 4.775881949338328e-16, No Iterations 2
DILUPBiCG:  Solving for Uy, Initial residual = 0.1636626536186498, Final residual = 4.726209566990532e-16, No Iterations 2
DILUPBiCG:  Solving for Uz, Initial residual = 0.04793297388100566, Final residual = 1.5301199166825e-17, No Iterations 2
DILUPBiCG:  Solving for e, Initial residual = 0.0477381249196731, Final residual = 2.018610676716303e-16, No Iterations 2
DILUPBiCG:  Solving for p, Initial residual = 0.04788408891023056, Final residual = 3.310453976055378e-08, No Iterations 1
diagonal:  Solving for rho, Initial residual = 0, Final residual = 0, No Iterations 0
time step continuity errors : sum local = 1.033883660442054e-14, global = 1.031858093106359e-14, cumulative = 2.420216669104147e-14
DILUPBiCG:  Solving for p, Initial residual = 3.148521320655385e-08, Final residual = 6.675336484062239e-13, No Iterations 1
diagonal:  Solving for rho, Initial residual = 0, Final residual = 0, No Iterations 0
time step continuity errors : sum local = 3.652791847971537e-16, global = 3.490539244351532e-16, cumulative = 2.455122061547663e-14
DILUPBiCG:  Solving for k, Initial residual = 0.1026501547182213, Final residual = 3.225695274528064e-16, No Iterations 2
ExecutionTime = 36.86 s  ClockTime = 2035 s

ORIG_COMP_STEP = 78.56679701805115
ORIG_IO_STEP = 1.822473049163818
Courant Number mean: 3.951930514842375e-09 max: 0.0009897155971296521
deltaT = 1.144754599728827e-07
Time = 6.80853e-07

PIMPLE: iteration 1
diagonal:  Solving for rho, Initial residual = 0, Final residual = 0, No Iterations 0
DILUPBiCG:  Solving for Ux, Initial residual = 0.163272452469832, Final residual = 1.984638376473767e-17, No Iterations 2
DILUPBiCG:  Solving for Uy, Initial residual = 0.1632724524686573, Final residual = 2.185243280889882e-17, No Iterations 2
DILUPBiCG:  Solving for Uz, Initial residual = 0.04778393039409842, Final residual = 4.34829551759575e-18, No Iterations 2
DILUPBiCG:  Solving for e, Initial residual = 0.04755123701061517, Final residual = 4.498510901122309e-16, No Iterations 2
DILUPBiCG:  Solving for p, Initial residual = 0.047726448035439, Final residual = 4.805636474813772e-08, No Iterations 1
diagonal:  Solving for rho, Initial residual = 0, Final residual = 0, No Iterations 0
time step continuity errors : sum local = 1.754296947756775e-14, global = 1.743513799875771e-14, cumulative = 4.198635861423433e-14
DILUPBiCG:  Solving for p, Initial residual = 4.619765706095201e-08, Final residual = 1.423296449127079e-19, No Iterations 2
diagonal:  Solving for rho, Initial residual = 0, Final residual = 0, No Iterations 0
time step continuity errors : sum local = 1.322280180274755e-16, global = 3.025542915892106e-17, cumulative = 4.201661404339325e-14
DILUPBiCG:  Solving for k, Initial residual = 0.1020924437834573, Final residual = 7.494771256255391e-16, No Iterations 2
ExecutionTime = 38.26 s  ClockTime = 2117 s

ORIG_COMP_STEP = 80.22562599182129
ORIG_IO_STEP = 1.883857011795044
Courant Number mean: 4.745070432522655e-09 max: 0.001186627026954609
deltaT = 1.373705519674592e-07
Time = 8.18223e-07

PIMPLE: iteration 1
diagonal:  Solving for rho, Initial residual = 0, Final residual = 0, No Iterations 0
DILUPBiCG:  Solving for Ux, Initial residual = 0.1629099703899602, Final residual = 5.634611845814214e-16, No Iterations 2
DILUPBiCG:  Solving for Uy, Initial residual = 0.1629099703886268, Final residual = 5.676519566173224e-16, No Iterations 2
DILUPBiCG:  Solving for Uz, Initial residual = 0.04764142873488848, Final residual = 9.436281289958241e-17, No Iterations 2
DILUPBiCG:  Solving for e, Initial residual = 0.04736376296330019, Final residual = 1.016329698963976e-15, No Iterations 2
DILUPBiCG:  Solving for p, Initial residual = 0.04757405856287904, Final residual = 6.991266651841886e-08, No Iterations 1
diagonal:  Solving for rho, Initial residual = 0, Final residual = 0, No Iterations 0
time step continuity errors : sum local = 3.062331634517233e-14, global = 3.059429493436994e-14, cumulative = 7.26109089777632e-14
DILUPBiCG:  Solving for p, Initial residual = 6.804577098030471e-08, Final residual = 4.448028900318722e-19, No Iterations 2
diagonal:  Solving for rho, Initial residual = 0, Final residual = 0, No Iterations 0
time step continuity errors : sum local = 1.94192673206337e-16, global = 1.628358076001389e-16, cumulative = 7.277374478536333e-14
DILUPBiCG:  Solving for k, Initial residual = 0.1016096679193942, Final residual = 1.759378155298641e-15, No Iterations 2
ExecutionTime = 39.55 s  ClockTime = 2191 s

ORIG_COMP_STEP = 72.74039697647095
ORIG_IO_STEP = 1.766141891479492
Courant Number mean: 5.698494921456521e-09 max: 0.001422535600274933
deltaT = 1.64844662360951e-07
Time = 9.83068e-07

PIMPLE: iteration 1
diagonal:  Solving for rho, Initial residual = 0, Final residual = 0, No Iterations 0
DILUPBiCG:  Solving for Ux, Initial residual = 0.1625633322377012, Final residual = 2.263755318776821e-15, No Iterations 2
DILUPBiCG:  Solving for Uy, Initial residual = 0.1625633322364238, Final residual = 2.271188900378106e-15, No Iterations 2
DILUPBiCG:  Solving for Uz, Initial residual = 0.0475008223019143, Final residual = 4.469228314483515e-16, No Iterations 2
DILUPBiCG:  Solving for e, Initial residual = 0.0471698107488009, Final residual = 2.324340926293793e-15, No Iterations 2
DILUPBiCG:  Solving for p, Initial residual = 0.04742226979325301, Final residual = 1.019538893128338e-07, No Iterations 1
diagonal:  Solving for rho, Initial residual = 0, Final residual = 0, No Iterations 0
time step continuity errors : sum local = 5.336987890118141e-14, global = 5.334354652672462e-14, cumulative = 1.26117291312088e-13
DILUPBiCG:  Solving for p, Initial residual = 1.007056879372532e-07, Final residual = 1.402406467236123e-18, No Iterations 2
diagonal:  Solving for rho, Initial residual = 0, Final residual = 0, No Iterations 0
time step continuity errors : sum local = 2.29549475541305e-16, global = 2.188761246837203e-16, cumulative = 1.263361674367717e-13
DILUPBiCG:  Solving for k, Initial residual = 0.1011890927777021, Final residual = 4.167183667884283e-15, No Iterations 2
ExecutionTime = 40.94 s  ClockTime = 2272 s

ORIG_COMP_STEP = 79.03358602523804
ORIG_IO_STEP = 2.138746976852417
Courant Number mean: 6.845298310698389e-09 max: 0.001705119134745483
deltaT = 1.978135948331412e-07
Time = 1.18088e-06

PIMPLE: iteration 1
diagonal:  Solving for rho, Initial residual = 0, Final residual = 0, No Iterations 0
DILUPBiCG:  Solving for Ux, Initial residual = 0.1622215499212463, Final residual = 7.679753889167672e-15, No Iterations 2
DILUPBiCG:  Solving for Uy, Initial residual = 0.1622215499197026, Final residual = 7.693180001122953e-15, No Iterations 2
DILUPBiCG:  Solving for Uz, Initial residual = 0.04735769300209874, Final residual = 1.670409637362381e-15, No Iterations 2
DILUPBiCG:  Solving for e, Initial residual = 0.0469635264667868, Final residual = 5.37323395524624e-15, No Iterations 2
DILUPBiCG:  Solving for p, Initial residual = 0.0472666768729019, Final residual = 1.490776182256545e-07, No Iterations 1
diagonal:  Solving for rho, Initial residual = 0, Final residual = 0, No Iterations 0
time step continuity errors : sum local = 9.32617429868523e-14, global = 9.315753293004653e-14, cumulative = 2.194937003668182e-13
DILUPBiCG:  Solving for p, Initial residual = 1.497826422072593e-07, Final residual = 4.461926628698408e-18, No Iterations 2
diagonal:  Solving for rho, Initial residual = 0, Final residual = 0, No Iterations 0
time step continuity errors : sum local = 1.327594157127167e-16, global = 4.960333144591418e-17, cumulative = 2.195433036982641e-13
DILUPBiCG:  Solving for k, Initial residual = 0.1008199823460397, Final residual = 9.946934883705747e-15, No Iterations 2
ExecutionTime = 42.3 s  ClockTime = 2353 s

ORIG_COMP_STEP = 78.51716804504395
ORIG_IO_STEP = 2.163774967193604
Courant Number mean: 8.225861028556014e-09 max: 0.00204357029294634
deltaT = 2.373763137997695e-07
Time = 1.41826e-06

PIMPLE: iteration 1
diagonal:  Solving for rho, Initial residual = 0, Final residual = 0, No Iterations 0
DILUPBiCG:  Solving for Ux, Initial residual = 0.1618742297386121, Final residual = 2.450129098825831e-14, No Iterations 2
DILUPBiCG:  Solving for Uy, Initial residual = 0.1618742297370873, Final residual = 2.452505311679596e-14, No Iterations 2
DILUPBiCG:  Solving for Uz, Initial residual = 0.0472077447991226, Final residual = 5.670921618755603e-15, No Iterations 2
DILUPBiCG:  Solving for e, Initial residual = 0.04673910336703339, Final residual = 1.253845309259089e-14, No Iterations 2
DILUPBiCG:  Solving for p, Initial residual = 0.04710308945606054, Final residual = 2.18631898042668e-07, No Iterations 1
diagonal:  Solving for rho, Initial residual = 0, Final residual = 0, No Iterations 0
time step continuity errors : sum local = 1.639488704006895e-13, global = 1.638843221948705e-13, cumulative = 3.834276258931346e-13
DILUPBiCG:  Solving for p, Initial residual = 2.239535565199318e-07, Final residual = 1.433715267000335e-17, No Iterations 2
diagonal:  Solving for rho, Initial residual = 0, Final residual = 0, No Iterations 0
time step continuity errors : sum local = 3.100949938929359e-16, global = 3.049367032131553e-16, cumulative = 3.837325625963477e-13
DILUPBiCG:  Solving for k, Initial residual = 0.1004932882604268, Final residual = 2.390242049189371e-14, No Iterations 2
ExecutionTime = 43.6 s  ClockTime = 2429 s

ORIG_COMP_STEP = 73.83797907829285
ORIG_IO_STEP = 5.725589036941528
Courant Number mean: 9.88974208620318e-09 max: 0.002448912519030237
deltaT = 2.848515765597234e-07
Time = 1.70311e-06

PIMPLE: iteration 1
diagonal:  Solving for rho, Initial residual = 0, Final residual = 0, No Iterations 0
DILUPBiCG:  Solving for Ux, Initial residual = 0.1615113551404034, Final residual = 7.59633888069894e-14, No Iterations 2
DILUPBiCG:  Solving for Uy, Initial residual = 0.1615113551389178, Final residual = 7.600495843090924e-14, No Iterations 2
DILUPBiCG:  Solving for Uz, Initial residual = 0.04704673240210347, Final residual = 1.831734167947435e-14, No Iterations 2
DILUPBiCG:  Solving for e, Initial residual = 0.04649057708997822, Final residual = 2.949589786188767e-14, No Iterations 2
DILUPBiCG:  Solving for p, Initial residual = 0.04692750763070971, Final residual = 3.216980180680972e-07, No Iterations 1
diagonal:  Solving for rho, Initial residual = 0, Final residual = 0, No Iterations 0
time step continuity errors : sum local = 2.883752767792434e-13, global = 2.881805097270128e-13, cumulative = 6.719130723233605e-13
DILUPBiCG:  Solving for p, Initial residual = 3.365069638854089e-07, Final residual = 4.651481775142323e-17, No Iterations 2
diagonal:  Solving for rho, Initial residual = 0, Final residual = 0, No Iterations 0
time step continuity errors : sum local = 1.593165802237665e-16, global = 1.071067736574854e-16, cumulative = 6.72020179097018e-13
DILUPBiCG:  Solving for k, Initial residual = 0.1002013967319058, Final residual = 5.777004164653298e-14, No Iterations 2
ExecutionTime = 44.85 s  ClockTime = 2509 s

ORIG_COMP_STEP = 74.60209202766418
ORIG_IO_STEP = 1.574493885040283
Courant Number mean: 1.189823534879398e-08 max: 0.002934399460007165
deltaT = 3.41821891871668e-07
Time = 2.04493e-06

PIMPLE: iteration 1
diagonal:  Solving for rho, Initial residual = 0, Final residual = 0, No Iterations 0
DILUPBiCG:  Solving for Ux, Initial residual = 0.1611231519022884, Final residual = 2.318971971422356e-13, No Iterations 2
DILUPBiCG:  Solving for Uy, Initial residual = 0.161123151900978, Final residual = 2.319687861976043e-13, No Iterations 2
DILUPBiCG:  Solving for Uz, Initial residual = 0.0468704033973193, Final residual = 5.747189887896287e-14, No Iterations 2
DILUPBiCG:  Solving for e, Initial residual = 0.04621187667882147, Final residual = 6.986636110920141e-14, No Iterations 2
DILUPBiCG:  Solving for p, Initial residual = 0.04673615111446344, Final residual = 4.750741257261935e-07, No Iterations 1
diagonal:  Solving for rho, Initial residual = 0, Final residual = 0, No Iterations 0
time step continuity errors : sum local = 5.09531269595258e-13, global = 5.091384708530526e-13, cumulative = 1.18115864995007e-12
DILUPBiCG:  Solving for p, Initial residual = 5.081194449866855e-07, Final residual = 1.524622946391528e-16, No Iterations 2
diagonal:  Solving for rho, Initial residual = 0, Final residual = 0, No Iterations 0
time step continuity errors : sum local = 3.113569371612321e-16, global = 2.979169155714682e-16, cumulative = 1.181456566865642e-12
DILUPBiCG:  Solving for k, Initial residual = 0.09993800048169643, Final residual = 1.403234946809745e-13, No Iterations 2
ExecutionTime = 46.32 s  ClockTime = 2591 s

ORIG_COMP_STEP = 80.86791777610779
ORIG_IO_STEP = 2.093822956085205
Courant Number mean: 1.432790913902952e-08 max: 0.003516032937528528
deltaT = 4.101862702460016e-07
Time = 2.45512e-06

PIMPLE: iteration 1
diagonal:  Solving for rho, Initial residual = 0, Final residual = 0, No Iterations 0
DILUPBiCG:  Solving for Ux, Initial residual = 0.1607000532570325, Final residual = 7.014619547256403e-13, No Iterations 2
DILUPBiCG:  Solving for Uy, Initial residual = 0.1607000532559076, Final residual = 7.015804590688156e-13, No Iterations 2
DILUPBiCG:  Solving for Uz, Initial residual = 0.04667457655504255, Final residual = 1.770611622796731e-13, No Iterations 2
DILUPBiCG:  Solving for e, Initial residual = 0.04589691113154101, Final residual = 1.66453078226582e-13, No Iterations 2
DILUPBiCG:  Solving for p, Initial residual = 0.04652555218199009, Final residual = 7.04352668763865e-07, No Iterations 1
diagonal:  Solving for rho, Initial residual = 0, Final residual = 0, No Iterations 0
time step continuity errors : sum local = 9.027752675052321e-13, global = 9.016096730908053e-13, cumulative = 2.083066239956447e-12
DILUPBiCG:  Solving for p, Initial residual = 7.70773786869921e-07, Final residual = 5.049790630043282e-16, No Iterations 2
diagonal:  Solving for rho, Initial residual = 0, Final residual = 0, No Iterations 0
time step continuity errors : sum local = 1.273187435304602e-16, global = -3.513308161711806e-17, cumulative = 2.08303110687483e-12
DILUPBiCG:  Solving for k, Initial residual = 0.09969816767107527, Final residual = 3.423245646855275e-13, No Iterations 2
ExecutionTime = 47.6 s  ClockTime = 2670 s

ORIG_COMP_STEP = 75.94499111175537
ORIG_IO_STEP = 2.353579998016357
Courant Number mean: 1.727563428324323e-08 max: 0.004213255561684576
deltaT = 4.922235242952019e-07
Time = 2.94734e-06

PIMPLE: iteration 1
diagonal:  Solving for rho, Initial residual = 0, Final residual = 0, No Iterations 0
DILUPBiCG:  Solving for Ux, Initial residual = 0.1602327933869701, Final residual = 4.37380906695104e-18, No Iterations 3
DILUPBiCG:  Solving for Uy, Initial residual = 0.1602327933859981, Final residual = 4.37932125483083e-18, No Iterations 3
DILUPBiCG:  Solving for Uz, Initial residual = 0.04645521806771756, Final residual = 5.389203057044677e-13, No Iterations 2
DILUPBiCG:  Solving for e, Initial residual = 0.04553977633064064, Final residual = 3.98491603317237e-13, No Iterations 2
DILUPBiCG:  Solving for p, Initial residual = 0.0462927386333717, Final residual = 1.048701857179018e-06, No Iterations 1
diagonal:  Solving for rho, Initial residual = 0, Final residual = 0, No Iterations 0
time step continuity errors : sum local = 1.605602517406309e-12, global = 1.603024677109563e-12, cumulative = 3.686055783984393e-12
DILUPBiCG:  Solving for p, Initial residual = 1.17438991195805e-06, Final residual = 1.690383170299558e-15, No Iterations 2
diagonal:  Solving for rho, Initial residual = 0, Final residual = 0, No Iterations 0
time step continuity errors : sum local = 1.639363716731984e-16, global = 1.46673811952575e-17, cumulative = 3.686070451365588e-12
DILUPBiCG:  Solving for k, Initial residual = 0.09947821437656036, Final residual = 8.382838685928893e-13, No Iterations 2
ExecutionTime = 49.05 s  ClockTime = 2752 s

ORIG_COMP_STEP = 80.45976996421814
ORIG_IO_STEP = 2.072705984115601
Courant Number mean: 2.086590654202269e-08 max: 0.005049908991491794
deltaT = 5.906682291542422e-07
Time = 3.53801e-06

PIMPLE: iteration 1
diagonal:  Solving for rho, Initial residual = 0, Final residual = 0, No Iterations 0
DILUPBiCG:  Solving for Ux, Initial residual = 0.1597126711517292, Final residual = 2.239976484323258e-17, No Iterations 3
DILUPBiCG:  Solving for Uy, Initial residual = 0.1597126711510946, Final residual = 2.242111780894523e-17, No Iterations 3
DILUPBiCG:  Solving for Uz, Initial residual = 0.04620866495311191, Final residual = 4.810072694090806e-18, No Iterations 3
DILUPBiCG:  Solving for e, Initial residual = 0.04513513479516035, Final residual = 9.578756792956641e-13, No Iterations 2
DILUPBiCG:  Solving for p, Initial residual = 0.04603549441940838, Final residual = 1.56828445269734e-06, No Iterations 1
diagonal:  Solving for rho, Initial residual = 0, Final residual = 0, No Iterations 0
time step continuity errors : sum local = 2.866126938600295e-12, global = 2.859825286806897e-12, cumulative = 6.545895738172485e-12
DILUPBiCG:  Solving for p, Initial residual = 1.796335671297211e-06, Final residual = 5.719548268633062e-15, No Iterations 2
diagonal:  Solving for rho, Initial residual = 0, Final residual = 0, No Iterations 0
time step continuity errors : sum local = 3.426155872232089e-16, global = 3.417012083033231e-16, cumulative = 6.546237439380789e-12
DILUPBiCG:  Solving for k, Initial residual = 0.09927575577983626, Final residual = 1.63851561383015e-17, No Iterations 3
ExecutionTime = 50.38 s  ClockTime = 2826 s

ORIG_COMP_STEP = 71.21417498588562
ORIG_IO_STEP = 1.849150896072388
Courant Number mean: 2.526175680348302e-08 max: 0.006055606475781683
deltaT = 7.088018749850907e-07
Time = 4.24681e-06

PIMPLE: iteration 1
diagonal:  Solving for rho, Initial residual = 0, Final residual = 0, No Iterations 0
DILUPBiCG:  Solving for Ux, Initial residual = 0.1591320390801655, Final residual = 1.142341249766917e-16, No Iterations 3
DILUPBiCG:  Solving for Uy, Initial residual = 0.1591320390797045, Final residual = 1.143188020720544e-16, No Iterations 3
DILUPBiCG:  Solving for Uz, Initial residual = 0.04593213665005582, Final residual = 2.395850248190837e-17, No Iterations 3
DILUPBiCG:  Solving for e, Initial residual = 0.04467882292873183, Final residual = 2.202510564336691e-17, No Iterations 3
DILUPBiCG:  Solving for p, Initial residual = 0.04575279725691112, Final residual = 2.355709013797823e-06, No Iterations 1
diagonal:  Solving for rho, Initial residual = 0, Final residual = 0, No Iterations 0
time step continuity errors : sum local = 5.134078676260067e-12, global = 5.117863286222048e-12, cumulative = 1.166410072560284e-11
DILUPBiCG:  Solving for p, Initial residual = 2.756529874803348e-06, Final residual = 1.956804312083059e-14, No Iterations 2
diagonal:  Solving for rho, Initial residual = 0, Final residual = 0, No Iterations 0
time step continuity errors : sum local = 3.950314543182859e-16, global = 3.887925437983429e-16, cumulative = 1.166448951814664e-11
DILUPBiCG:  Solving for k, Initial residual = 0.09908999903357492, Final residual = 6.865772469534121e-17, No Iterations 3
ExecutionTime = 51.75 s  ClockTime = 2907 s

ORIG_COMP_STEP = 79.54779887199402
ORIG_IO_STEP = 2.104313850402832
Courant Number mean: 3.068132877958327e-08 max: 0.007267762407950418
deltaT = 8.505622499821088e-07
Time = 5.09737e-06

PIMPLE: iteration 1
diagonal:  Solving for rho, Initial residual = 0, Final residual = 0, No Iterations 0
DILUPBiCG:  Solving for Ux, Initial residual = 0.1584850834631923, Final residual = 5.804442055922791e-16, No Iterations 3
DILUPBiCG:  Solving for Uy, Initial residual = 0.1584850834628784, Final residual = 5.807861058616535e-16, No Iterations 3
DILUPBiCG:  Solving for Uz, Initial residual = 0.04562427879955151, Final residual = 1.188170609917842e-16, No Iterations 3
DILUPBiCG:  Solving for e, Initial residual = 0.04416879893831938, Final residual = 8.897308126127635e-17, No Iterations 3
DILUPBiCG:  Solving for p, Initial residual = 0.04544536468490703, Final residual = 3.553537876139426e-06, No Iterations 1
diagonal:  Solving for rho, Initial residual = 0, Final residual = 0, No Iterations 0
time step continuity errors : sum local = 9.227105287727531e-12, global = 9.184689702981458e-12, cumulative = 2.084917922112809e-11
DILUPBiCG:  Solving for p, Initial residual = 4.239550212326193e-06, Final residual = 6.772206727594857e-14, No Iterations 2
diagonal:  Solving for rho, Initial residual = 0, Final residual = 0, No Iterations 0
time step continuity errors : sum local = 2.322916431962743e-16, global = -2.231494491484908e-16, cumulative = 2.084895607167895e-11
DILUPBiCG:  Solving for k, Initial residual = 0.09892177150781388, Final residual = 2.882308504794732e-16, No Iterations 3
ExecutionTime = 53.28 s  ClockTime = 2992 s

ORIG_COMP_STEP = 83.25346994400024
ORIG_IO_STEP = 1.384201049804688
Courant Number mean: 3.742346121251695e-08 max: 0.008734672775113925
deltaT = 1.02067469997853e-06
Time = 6.11805e-06

PIMPLE: iteration 1
diagonal:  Solving for rho, Initial residual = 0, Final residual = 0, No Iterations 0
DILUPBiCG:  Solving for Ux, Initial residual = 0.1577689622063801, Final residual = 2.937940246045163e-15, No Iterations 3
DILUPBiCG:  Solving for Uy, Initial residual = 0.1577689622060607, Final residual = 2.939315513973382e-15, No Iterations 3
DILUPBiCG:  Solving for Uz, Initial residual = 0.04528634562173031, Final residual = 5.863996473093719e-16, No Iterations 3
DILUPBiCG:  Solving for e, Initial residual = 0.04360656452640942, Final residual = 3.588601839130225e-16, No Iterations 3
DILUPBiCG:  Solving for p, Initial residual = 0.04511637285254616, Final residual = 5.38060484625568e-06, No Iterations 1
diagonal:  Solving for rho, Initial residual = 0, Final residual = 0, No Iterations 0
time step continuity errors : sum local = 1.663036359744053e-11, global = 1.652007471415343e-11, cumulative = 3.736903078583238e-11
DILUPBiCG:  Solving for p, Initial residual = 6.527264528745541e-06, Final residual = 2.373150908285733e-13, No Iterations 2
diagonal:  Solving for rho, Initial residual = 0, Final residual = 0, No Iterations 0
time step continuity errors : sum local = 2.25691538254228e-16, global = -8.057742173397285e-17, cumulative = 3.736895020841065e-11
DILUPBiCG:  Solving for k, Initial residual = 0.09877351126074609, Final residual = 1.210685062026217e-15, No Iterations 3
ExecutionTime = 54.71 s  ClockTime = 3073 s

ORIG_COMP_STEP = 78.89854717254639
ORIG_IO_STEP = 2.151665925979614
Courant Number mean: 4.590759108515e-08 max: 0.01052027743139994
deltaT = 1.224809639974236e-06
Time = 7.34286e-06

PIMPLE: iteration 1
diagonal:  Solving for rho, Initial residual = 0, Final residual = 0, No Iterations 0
DILUPBiCG:  Solving for Ux, Initial residual = 0.1569853427193522, Final residual = 1.480151785721234e-14, No Iterations 3
DILUPBiCG:  Solving for Uy, Initial residual = 0.1569853427191591, Final residual = 1.480712163751396e-14, No Iterations 3
DILUPBiCG:  Solving for Uz, Initial residual = 0.04492400179207238, Final residual = 2.877180794089858e-15, No Iterations 3
DILUPBiCG:  Solving for e, Initial residual = 0.04299908488018516, Final residual = 1.43696971673031e-15, No Iterations 3
DILUPBiCG:  Solving for p, Initial residual = 0.04477760724041047, Final residual = 8.166132691885448e-06, No Iterations 1
diagonal:  Solving for rho, Initial residual = 0, Final residual = 0, No Iterations 0
time step continuity errors : sum local = 3.001593964809663e-11, global = 2.972608618428328e-11, cumulative = 6.709503639269392e-11
DILUPBiCG:  Solving for p, Initial residual = 1.004051650119491e-05, Final residual = 8.455859807835059e-13, No Iterations 2
diagonal:  Solving for rho, Initial residual = 0, Final residual = 0, No Iterations 0
time step continuity errors : sum local = 1.668771009729811e-16, global = 1.418325777541938e-16, cumulative = 6.709517822527168e-11
DILUPBiCG:  Solving for k, Initial residual = 0.09864899878629024, Final residual = 5.079196742039948e-15, No Iterations 3
ExecutionTime = 56.15 s  ClockTime = 3151 s

ORIG_COMP_STEP = 76.01382207870483
ORIG_IO_STEP = 2.732508897781372
Courant Number mean: 5.673585149846028e-08 max: 0.0127115180691738
deltaT = 1.469771567969084e-06
Time = 8.81263e-06

PIMPLE: iteration 1
diagonal:  Solving for rho, Initial residual = 0, Final residual = 0, No Iterations 0
DILUPBiCG:  Solving for Ux, Initial residual = 0.1561424735600357, Final residual = 7.409248355485854e-14, No Iterations 3
DILUPBiCG:  Solving for Uy, Initial residual = 0.1561424735601818, Final residual = 7.411486371628305e-14, No Iterations 3
DILUPBiCG:  Solving for Uz, Initial residual = 0.04454946801749669, Final residual = 1.401250275103519e-14, No Iterations 3
DILUPBiCG:  Solving for e, Initial residual = 0.04236247025608054, Final residual = 5.690465234484568e-15, No Iterations 3
DILUPBiCG:  Solving for p, Initial residual = 0.04443998236695128, Final residual = 1.240167206596e-05, No Iterations 1
diagonal:  Solving for rho, Initial residual = 0, Final residual = 0, No Iterations 0
time step continuity errors : sum local = 5.416365784789048e-11, global = 5.339678564551176e-11, cumulative = 1.204919638707834e-10
DILUPBiCG:  Solving for p, Initial residual = 1.539909758231253e-05, Final residual = 7.663541969332827e-16, No Iterations 3
diagonal:  Solving for rho, Initial residual = 0, Final residual = 0, No Iterations 0
time step continuity errors : sum local = 3.871636375024526e-16, global = -3.859136805616369e-16, cumulative = 1.204915779571029e-10
DILUPBiCG:  Solving for k, Initial residual = 0.09855246001917009, Final residual = 2.123279878665504e-14, No Iterations 3
ExecutionTime = 57.68 s  ClockTime = 3238 s

ORIG_COMP_STEP = 84.67885398864746
ORIG_IO_STEP = 2.073604106903076
Courant Number mean: 7.079002669142924e-08 max: 0.01542975610781005
deltaT = 1.7637258815629e-06
Time = 1.05764e-05

PIMPLE: iteration 1
diagonal:  Solving for rho, Initial residual = 0, Final residual = 0, No Iterations 0
DILUPBiCG:  Solving for Ux, Initial residual = 0.1552571609784846, Final residual = 3.675514896430592e-13, No Iterations 3
DILUPBiCG:  Solving for Uy, Initial residual = 0.1552571609804851, Final residual = 3.676384363698044e-13, No Iterations 3
DILUPBiCG:  Solving for Uz, Initial residual = 0.04418473345759684, Final residual = 6.760909568087295e-14, No Iterations 3
DILUPBiCG:  Solving for e, Initial residual = 0.04172360453270037, Final residual = 2.218204784006256e-14, No Iterations 3
DILUPBiCG:  Solving for p, Initial residual = 0.0441155641532257, Final residual = 1.880101094641022e-05, No Iterations 1
diagonal:  Solving for rho, Initial residual = 0, Final residual = 0, No Iterations 0
time step continuity errors : sum local = 9.749031153083561e-11, global = 9.54641908642073e-11, cumulative = 2.159557688213102e-10
DILUPBiCG:  Solving for p, Initial residual = 2.348603822897707e-05, Final residual = 3.431072733151055e-15, No Iterations 3
diagonal:  Solving for rho, Initial residual = 0, Final residual = 0, No Iterations 0
time step continuity errors : sum local = 5.039037390113917e-16, global = 4.93468555025919e-16, cumulative = 2.159562622898652e-10
DILUPBiCG:  Solving for k, Initial residual = 0.09848658822398633, Final residual = 8.816315976323608e-14, No Iterations 3
ExecutionTime = 59.34 s  ClockTime = 3329 s

ORIG_COMP_STEP = 88.27856802940369
ORIG_IO_STEP = 2.010895967483521
Courant Number mean: 8.938277714911167e-08 max: 0.01884846217489996
deltaT = 2.11647105787548e-06
Time = 1.26928e-05

PIMPLE: iteration 1
diagonal:  Solving for rho, Initial residual = 0, Final residual = 0, No Iterations 0
DILUPBiCG:  Solving for Ux, Initial residual = 0.1543560989867553, Final residual = 9.980052401048253e-16, No Iterations 4
DILUPBiCG:  Solving for Uy, Initial residual = 0.1543560989934759, Final residual = 9.977994374429299e-16, No Iterations 4
DILUPBiCG:  Solving for Uz, Initial residual = 0.0438656262339092, Final residual = 3.225456770307435e-13, No Iterations 3
DILUPBiCG:  Solving for e, Initial residual = 0.04112231334326658, Final residual = 8.41527761775416e-14, No Iterations 3
DILUPBiCG:  Solving for p, Initial residual = 0.04382735110781118, Final residual = 2.834368658748383e-05, No Iterations 1
diagonal:  Solving for rho, Initial residual = 0, Final residual = 0, No Iterations 0
time step continuity errors : sum local = 1.743871755083889e-10, global = 1.689558928775047e-10, cumulative = 3.849121551673699e-10
DILUPBiCG:  Solving for p, Initial residual = 3.546263407974168e-05, Final residual = 1.623710476401136e-14, No Iterations 3
diagonal:  Solving for rho, Initial residual = 0, Final residual = 0, No Iterations 0
time step continuity errors : sum local = 2.331770445419716e-16, global = -1.956201213021706e-16, cumulative = 3.849119595472486e-10
DILUPBiCG:  Solving for k, Initial residual = 0.09844881453739435, Final residual = 3.619504751802406e-13, No Iterations 3
ExecutionTime = 60.69 s  ClockTime = 3411 s

ORIG_COMP_STEP = 80.04176688194275
ORIG_IO_STEP = 2.101456165313721
Courant Number mean: 1.144885666828826e-07 max: 0.02321974920175027
deltaT = 2.539765269450577e-06
Time = 1.52326e-05

PIMPLE: iteration 1
diagonal:  Solving for rho, Initial residual = 0, Final residual = 0, No Iterations 0
DILUPBiCG:  Solving for Ux, Initial residual = 0.153475714108655, Final residual = 8.252105963519216e-15, No Iterations 4
DILUPBiCG:  Solving for Uy, Initial residual = 0.1534757141274947, Final residual = 8.249893897114673e-15, No Iterations 4
DILUPBiCG:  Solving for Uz, Initial residual = 0.04364665382998407, Final residual = 1.557269414792372e-15, No Iterations 4
DILUPBiCG:  Solving for e, Initial residual = 0.04061430502014432, Final residual = 3.05024234337899e-13, No Iterations 3
DILUPBiCG:  Solving for p, Initial residual = 0.04360116404422545, Final residual = 4.232019107833995e-05, No Iterations 1
diagonal:  Solving for rho, Initial residual = 0, Final residual = 0, No Iterations 0
time step continuity errors : sum local = 3.088133074477846e-10, global = 2.936283681054127e-10, cumulative = 6.785403276526613e-10
DILUPBiCG:  Solving for p, Initial residual = 5.263145700179343e-05, Final residual = 7.945450071161151e-14, No Iterations 3
diagonal:  Solving for rho, Initial residual = 0, Final residual = 0, No Iterations 0
time step continuity errors : sum local = 3.143201716747122e-16, global = 3.06134462899445e-16, cumulative = 6.785406337871242e-10
DILUPBiCG:  Solving for k, Initial residual = 0.09842508727815405, Final residual = 8.290020270775888e-17, No Iterations 4
ExecutionTime = 62.18 s  ClockTime = 3496 s

ORIG_COMP_STEP = 83.51931095123291
ORIG_IO_STEP = 2.015795946121216
Courant Number mean: 1.490870634098154e-07 max: 0.02891237801856183
deltaT = 3.047718323340692e-06
Time = 1.82803e-05

PIMPLE: iteration 1
diagonal:  Solving for rho, Initial residual = 0, Final residual = 0, No Iterations 0
DILUPBiCG:  Solving for Ux, Initial residual = 0.1526582016928126, Final residual = 6.590772003143555e-14, No Iterations 4
DILUPBiCG:  Solving for Uy, Initial residual = 0.1526582017450377, Final residual = 6.588517174739992e-14, No Iterations 4
DILUPBiCG:  Solving for Uz, Initial residual = 0.04360506041793608, Final residual = 1.216680683115164e-14, No Iterations 4
DILUPBiCG:  Solving for e, Initial residual = 0.0402689060695084, Final residual = 1.608916985498923e-16, No Iterations 4
DILUPBiCG:  Solving for p, Initial residual = 0.04346110482002545, Final residual = 6.215714580965617e-05, No Iterations 1
diagonal:  Solving for rho, Initial residual = 0, Final residual = 0, No Iterations 0
time step continuity errors : sum local = 5.378207136713635e-10, global = 4.948632108816328e-10, cumulative = 1.173403844668757e-09
DILUPBiCG:  Solving for p, Initial residual = 7.579574214705059e-05, Final residual = 3.84123455557052e-13, No Iterations 3
diagonal:  Solving for rho, Initial residual = 0, Final residual = 0, No Iterations 0
time step continuity errors : sum local = 2.36211206850299e-16, global = 1.915940324316134e-16, cumulative = 1.173404036262789e-09
DILUPBiCG:  Solving for k, Initial residual = 0.0983805034069523, Final residual = 5.417633878368584e-16, No Iterations 4
ExecutionTime = 63.6 s  ClockTime = 3581 s

ORIG_COMP_STEP = 82.15481209754944
ORIG_IO_STEP = 2.127578020095825
Courant Number mean: 1.976563170815795e-07 max: 0.03646209328907014
deltaT = 3.65726198800883e-06
Time = 2.19376e-05

PIMPLE: iteration 1
diagonal:  Solving for rho, Initial residual = 0, Final residual = 0, No Iterations 0
DILUPBiCG:  Solving for Ux, Initial residual = 0.1519408008151165, Final residual = 4.999134156446776e-13, No Iterations 4
DILUPBiCG:  Solving for Uy, Initial residual = 0.1519408009568774, Final residual = 4.997050241029797e-13, No Iterations 4
DILUPBiCG:  Solving for Uz, Initial residual = 0.04384251113137828, Final residual = 9.000526044971554e-14, No Iterations 4
DILUPBiCG:  Solving for e, Initial residual = 0.04015836371189196, Final residual = 8.007938643794677e-16, No Iterations 4
DILUPBiCG:  Solving for p, Initial residual = 0.04342034750189407, Final residual = 8.929381561946246e-05, No Iterations 1
diagonal:  Solving for rho, Initial residual = 0, Final residual = 0, No Iterations 0
time step continuity errors : sum local = 9.16143449202977e-10, global = 7.93639004986863e-10, cumulative = 1.967043041249653e-09
DILUPBiCG:  Solving for p, Initial residual = 0.000103338119828448, Final residual = 9.097878147327412e-15, No Iterations 4
diagonal:  Solving for rho, Initial residual = 0, Final residual = 0, No Iterations 0
time step continuity errors : sum local = 1.645938661014378e-16, global = -1.960145303445542e-17, cumulative = 1.9670430216482e-09
DILUPBiCG:  Solving for k, Initial residual = 0.09824842603338352, Final residual = 3.605320061400226e-15, No Iterations 4
ExecutionTime = 65.31999999999999 s  ClockTime = 3674 s

ORIG_COMP_STEP = 91.17877411842346
ORIG_IO_STEP = 2.681818962097168
Courant Number mean: 2.668566681128741e-07 max: 0.04662878421965267
deltaT = 4.388714385610596e-06
Time = 2.63263e-05

PIMPLE: iteration 1
diagonal:  Solving for rho, Initial residual = 0, Final residual = 0, No Iterations 0
DILUPBiCG:  Solving for Ux, Initial residual = 0.1513362188424495, Final residual = 1.168678625753605e-15, No Iterations 5
DILUPBiCG:  Solving for Uy, Initial residual = 0.151336219223834, Final residual = 1.119603177781863e-15, No Iterations 5
DILUPBiCG:  Solving for Uz, Initial residual = 0.04447924796505918, Final residual = 6.181562220109552e-13, No Iterations 4
DILUPBiCG:  Solving for e, Initial residual = 0.04033329303619878, Final residual = 2.623873379874415e-15, No Iterations 4
DILUPBiCG:  Solving for p, Initial residual = 0.04346714722240096, Final residual = 0.0001256052330890067, No Iterations 1
diagonal:  Solving for rho, Initial residual = 0, Final residual = 0, No Iterations 0
time step continuity errors : sum local = 1.52825673806686e-09, global = 1.180585385458841e-09, cumulative = 3.147628407107041e-09
DILUPBiCG:  Solving for p, Initial residual = 0.0001312533195690218, Final residual = 4.959786982450159e-14, No Iterations 4
diagonal:  Solving for rho, Initial residual = 0, Final residual = 0, No Iterations 0
[...]
ExecutionTime = 35.09 s  ClockTime = 1896 s

ORIG_COMP_STEP = 72.8457190990448
ORIG_IO_STEP = 2.106030225753784
Courant Number mean: 3.291833465891098e-09 max: 0.0008253834685292259
deltaT = 9.53962166440689e-08
Time = 5.66377e-07

PIMPLE: iteration 1
diagonal:  Solving for rho, Initial residual = 0, Final residual = 0, No Iterations 0
DILUPBiCG:  Solving for Ux, Initial residual = 0.1636626536201513, Final residual = 4.775881949338328e-16, No Iterations 2
DILUPBiCG:  Solving for Uy, Initial residual = 0.1636626536186498, Final residual = 4.726209566990532e-16, No Iterations 2
DILUPBiCG:  Solving for Uz, Initial residual = 0.04793297388100566, Final residual = 1.5301199166825e-17, No Iterations 2
DILUPBiCG:  Solving for e, Initial residual = 0.0477381249196731, Final residual = 2.018610676716303e-16, No Iterations 2
DILUPBiCG:  Solving for p, Initial residual = 0.04788408891023056, Final residual = 3.310453976055378e-08, No Iterations 1
diagonal:  Solving for rho, Initial residual = 0, Final residual = 0, No Iterations 0
time step continuity errors : sum local = 1.033883660442054e-14, global = 1.031858093106359e-14, cumulative = 2.420216669104147e-14
DILUPBiCG:  Solving for p, Initial residual = 3.148521320655385e-08, Final residual = 6.675336484062239e-13, No Iterations 1
diagonal:  Solving for rho, Initial residual = 0, Final residual = 0, No Iterations 0
time step continuity errors : sum local = 3.652791847971537e-16, global = 3.490539244351532e-16, cumulative = 2.455122061547663e-14
DILUPBiCG:  Solving for k, Initial residual = 0.1026501547182213, Final residual = 3.225695274528064e-16, No Iterations 2
ExecutionTime = 36.61 s  ClockTime = 1975 s

ORIG_COMP_STEP = 77.20697283744812
ORIG_IO_STEP = 2.171951055526733
Courant Number mean: 3.951930514842375e-09 max: 0.0009897155971296521
deltaT = 1.144754599728827e-07
Time = 6.80853e-07

PIMPLE: iteration 1
diagonal:  Solving for rho, Initial residual = 0, Final residual = 0, No Iterations 0
DILUPBiCG:  Solving for Ux, Initial residual = 0.163272452469832, Final residual = 1.984638376473767e-17, No Iterations 2
DILUPBiCG:  Solving for Uy, Initial residual = 0.1632724524686573, Final residual = 2.185243280889882e-17, No Iterations 2
DILUPBiCG:  Solving for Uz, Initial residual = 0.04778393039409842, Final residual = 4.34829551759575e-18, No Iterations 2
DILUPBiCG:  Solving for e, Initial residual = 0.04755123701061517, Final residual = 4.498510901122309e-16, No Iterations 2
DILUPBiCG:  Solving for p, Initial residual = 0.047726448035439, Final residual = 4.805636474813772e-08, No Iterations 1
diagonal:  Solving for rho, Initial residual = 0, Final residual = 0, No Iterations 0
time step continuity errors : sum local = 1.754296947756775e-14, global = 1.743513799875771e-14, cumulative = 4.198635861423433e-14
DILUPBiCG:  Solving for p, Initial residual = 4.619765706095201e-08, Final residual = 1.423296449127079e-19, No Iterations 2
diagonal:  Solving for rho, Initial residual = 0, Final residual = 0, No Iterations 0
time step continuity errors : sum local = 1.322280180274755e-16, global = 3.025542915892106e-17, cumulative = 4.201661404339325e-14
DILUPBiCG:  Solving for k, Initial residual = 0.1020924437834573, Final residual = 7.494771256255391e-16, No Iterations 2
ExecutionTime = 38.18 s  ClockTime = 2063 s

ORIG_COMP_STEP = 85.74740195274353
ORIG_IO_STEP = 2.313624143600464
Courant Number mean: 4.745070432522655e-09 max: 0.001186627026954609
deltaT = 1.373705519674592e-07
Time = 8.18223e-07

PIMPLE: iteration 1
diagonal:  Solving for rho, Initial residual = 0, Final residual = 0, No Iterations 0
DILUPBiCG:  Solving for Ux, Initial residual = 0.1629099703899602, Final residual = 5.634611845814214e-16, No Iterations 2
DILUPBiCG:  Solving for Uy, Initial residual = 0.1629099703886268, Final residual = 5.676519566173224e-16, No Iterations 2
DILUPBiCG:  Solving for Uz, Initial residual = 0.04764142873488848, Final residual = 9.436281289958241e-17, No Iterations 2
DILUPBiCG:  Solving for e, Initial residual = 0.04736376296330019, Final residual = 1.016329698963976e-15, No Iterations 2
DILUPBiCG:  Solving for p, Initial residual = 0.04757405856287904, Final residual = 6.991266651841886e-08, No Iterations 1
diagonal:  Solving for rho, Initial residual = 0, Final residual = 0, No Iterations 0
time step continuity errors : sum local = 3.062331634517233e-14, global = 3.059429493436994e-14, cumulative = 7.26109089777632e-14
DILUPBiCG:  Solving for p, Initial residual = 6.804577098030471e-08, Final residual = 4.448028900318722e-19, No Iterations 2
diagonal:  Solving for rho, Initial residual = 0, Final residual = 0, No Iterations 0
time step continuity errors : sum local = 1.94192673206337e-16, global = 1.628358076001389e-16, cumulative = 7.277374478536333e-14
DILUPBiCG:  Solving for k, Initial residual = 0.1016096679193942, Final residual = 1.759378155298641e-15, No Iterations 2
ExecutionTime = 39.72 s  ClockTime = 2149 s

ORIG_COMP_STEP = 83.02398204803467
ORIG_IO_STEP = 2.249612808227539
Courant Number mean: 5.698494921456521e-09 max: 0.001422535600274933
deltaT = 1.64844662360951e-07
Time = 9.83068e-07

PIMPLE: iteration 1
diagonal:  Solving for rho, Initial residual = 0, Final residual = 0, No Iterations 0
DILUPBiCG:  Solving for Ux, Initial residual = 0.1625633322377012, Final residual = 2.263755318776821e-15, No Iterations 2
DILUPBiCG:  Solving for Uy, Initial residual = 0.1625633322364238, Final residual = 2.271188900378106e-15, No Iterations 2
DILUPBiCG:  Solving for Uz, Initial residual = 0.0475008223019143, Final residual = 4.469228314483515e-16, No Iterations 2
DILUPBiCG:  Solving for e, Initial residual = 0.0471698107488009, Final residual = 2.324340926293793e-15, No Iterations 2
DILUPBiCG:  Solving for p, Initial residual = 0.04742226979325301, Final residual = 1.019538893128338e-07, No Iterations 1
diagonal:  Solving for rho, Initial residual = 0, Final residual = 0, No Iterations 0
time step continuity errors : sum local = 5.336987890118141e-14, global = 5.334354652672462e-14, cumulative = 1.26117291312088e-13
DILUPBiCG:  Solving for p, Initial residual = 1.007056879372532e-07, Final residual = 1.402406467236123e-18, No Iterations 2
diagonal:  Solving for rho, Initial residual = 0, Final residual = 0, No Iterations 0
time step continuity errors : sum local = 2.29549475541305e-16, global = 2.188761246837203e-16, cumulative = 1.263361674367717e-13
DILUPBiCG:  Solving for k, Initial residual = 0.1011890927777021, Final residual = 4.167183667884283e-15, No Iterations 2
ExecutionTime = 41.02 s  ClockTime = 2227 s

ORIG_COMP_STEP = 76.38028979301453
ORIG_IO_STEP = 2.546781063079834
Courant Number mean: 6.845298310698389e-09 max: 0.001705119134745483
deltaT = 1.978135948331412e-07
Time = 1.18088e-06

PIMPLE: iteration 1
diagonal:  Solving for rho, Initial residual = 0, Final residual = 0, No Iterations 0
DILUPBiCG:  Solving for Ux, Initial residual = 0.1622215499212463, Final residual = 7.679753889167672e-15, No Iterations 2
DILUPBiCG:  Solving for Uy, Initial residual = 0.1622215499197026, Final residual = 7.693180001122953e-15, No Iterations 2
DILUPBiCG:  Solving for Uz, Initial residual = 0.04735769300209874, Final residual = 1.670409637362381e-15, No Iterations 2
DILUPBiCG:  Solving for e, Initial residual = 0.0469635264667868, Final residual = 5.37323395524624e-15, No Iterations 2
DILUPBiCG:  Solving for p, Initial residual = 0.0472666768729019, Final residual = 1.490776182256545e-07, No Iterations 1
diagonal:  Solving for rho, Initial residual = 0, Final residual = 0, No Iterations 0
time step continuity errors : sum local = 9.32617429868523e-14, global = 9.315753293004653e-14, cumulative = 2.194937003668182e-13
DILUPBiCG:  Solving for p, Initial residual = 1.497826422072593e-07, Final residual = 4.461926628698408e-18, No Iterations 2
diagonal:  Solving for rho, Initial residual = 0, Final residual = 0, No Iterations 0
time step continuity errors : sum local = 1.327594157127167e-16, global = 4.960333144591418e-17, cumulative = 2.195433036982641e-13
DILUPBiCG:  Solving for k, Initial residual = 0.1008199823460397, Final residual = 9.946934883705747e-15, No Iterations 2
ExecutionTime = 42.29 s  ClockTime = 2302 s

ORIG_COMP_STEP = 72.30378913879395
ORIG_IO_STEP = 2.235733032226562
Courant Number mean: 8.225861028556014e-09 max: 0.00204357029294634
deltaT = 2.373763137997695e-07
Time = 1.41826e-06

PIMPLE: iteration 1
diagonal:  Solving for rho, Initial residual = 0, Final residual = 0, No Iterations 0
DILUPBiCG:  Solving for Ux, Initial residual = 0.1618742297386121, Final residual = 2.450129098825831e-14, No Iterations 2
DILUPBiCG:  Solving for Uy, Initial residual = 0.1618742297370873, Final residual = 2.452505311679596e-14, No Iterations 2
DILUPBiCG:  Solving for Uz, Initial residual = 0.0472077447991226, Final residual = 5.670921618755603e-15, No Iterations 2
DILUPBiCG:  Solving for e, Initial residual = 0.04673910336703339, Final residual = 1.253845309259089e-14, No Iterations 2
DILUPBiCG:  Solving for p, Initial residual = 0.04710308945606054, Final residual = 2.18631898042668e-07, No Iterations 1
diagonal:  Solving for rho, Initial residual = 0, Final residual = 0, No Iterations 0
time step continuity errors : sum local = 1.639488704006895e-13, global = 1.638843221948705e-13, cumulative = 3.834276258931346e-13
DILUPBiCG:  Solving for p, Initial residual = 2.239535565199318e-07, Final residual = 1.433715267000335e-17, No Iterations 2
diagonal:  Solving for rho, Initial residual = 0, Final residual = 0, No Iterations 0
time step continuity errors : sum local = 3.100949938929359e-16, global = 3.049367032131553e-16, cumulative = 3.837325625963477e-13
DILUPBiCG:  Solving for k, Initial residual = 0.1004932882604268, Final residual = 2.390242049189371e-14, No Iterations 2
ExecutionTime = 43.52 s  ClockTime = 2378 s

ORIG_COMP_STEP = 73.58581900596619
ORIG_IO_STEP = 1.55725884437561
Courant Number mean: 9.88974208620318e-09 max: 0.002448912519030237
deltaT = 2.848515765597234e-07
Time = 1.70311e-06

PIMPLE: iteration 1
diagonal:  Solving for rho, Initial residual = 0, Final residual = 0, No Iterations 0
DILUPBiCG:  Solving for Ux, Initial residual = 0.1615113551404034, Final residual = 7.59633888069894e-14, No Iterations 2
DILUPBiCG:  Solving for Uy, Initial residual = 0.1615113551389178, Final residual = 7.600495843090924e-14, No Iterations 2
DILUPBiCG:  Solving for Uz, Initial residual = 0.04704673240210347, Final residual = 1.831734167947435e-14, No Iterations 2
DILUPBiCG:  Solving for e, Initial residual = 0.04649057708997822, Final residual = 2.949589786188767e-14, No Iterations 2
DILUPBiCG:  Solving for p, Initial residual = 0.04692750763070971, Final residual = 3.216980180680972e-07, No Iterations 1
diagonal:  Solving for rho, Initial residual = 0, Final residual = 0, No Iterations 0
time step continuity errors : sum local = 2.883752767792434e-13, global = 2.881805097270128e-13, cumulative = 6.719130723233605e-13
DILUPBiCG:  Solving for p, Initial residual = 3.365069638854089e-07, Final residual = 4.651481775142323e-17, No Iterations 2
diagonal:  Solving for rho, Initial residual = 0, Final residual = 0, No Iterations 0
time step continuity errors : sum local = 1.593165802237665e-16, global = 1.071067736574854e-16, cumulative = 6.72020179097018e-13
DILUPBiCG:  Solving for k, Initial residual = 0.1002013967319058, Final residual = 5.777004164653298e-14, No Iterations 2
ExecutionTime = 44.88 s  ClockTime = 2459 s

ORIG_COMP_STEP = 80.04326009750366
ORIG_IO_STEP = 2.10717511177063
Courant Number mean: 1.189823534879398e-08 max: 0.002934399460007165
deltaT = 3.41821891871668e-07
Time = 2.04493e-06

PIMPLE: iteration 1
diagonal:  Solving for rho, Initial residual = 0, Final residual = 0, No Iterations 0
DILUPBiCG:  Solving for Ux, Initial residual = 0.1611231519022884, Final residual = 2.318971971422356e-13, No Iterations 2
DILUPBiCG:  Solving for Uy, Initial residual = 0.161123151900978, Final residual = 2.319687861976043e-13, No Iterations 2
DILUPBiCG:  Solving for Uz, Initial residual = 0.0468704033973193, Final residual = 5.747189887896287e-14, No Iterations 2
DILUPBiCG:  Solving for e, Initial residual = 0.04621187667882147, Final residual = 6.986636110920141e-14, No Iterations 2
DILUPBiCG:  Solving for p, Initial residual = 0.04673615111446344, Final residual = 4.750741257261935e-07, No Iterations 1
diagonal:  Solving for rho, Initial residual = 0, Final residual = 0, No Iterations 0
time step continuity errors : sum local = 5.09531269595258e-13, global = 5.091384708530526e-13, cumulative = 1.18115864995007e-12
DILUPBiCG:  Solving for p, Initial residual = 5.081194449866855e-07, Final residual = 1.524622946391528e-16, No Iterations 2
diagonal:  Solving for rho, Initial residual = 0, Final residual = 0, No Iterations 0
time step continuity errors : sum local = 3.113569371612321e-16, global = 2.979169155714682e-16, cumulative = 1.181456566865642e-12
DILUPBiCG:  Solving for k, Initial residual = 0.09993800048169643, Final residual = 1.403234946809745e-13, No Iterations 2
ExecutionTime = 46.25 s  ClockTime = 2541 s

ORIG_COMP_STEP = 79.20077896118164
ORIG_IO_STEP = 2.063715219497681
Courant Number mean: 1.432790913902952e-08 max: 0.003516032937528528
deltaT = 4.101862702460016e-07
Time = 2.45512e-06

PIMPLE: iteration 1
diagonal:  Solving for rho, Initial residual = 0, Final residual = 0, No Iterations 0
DILUPBiCG:  Solving for Ux, Initial residual = 0.1607000532570325, Final residual = 7.014619547256403e-13, No Iterations 2
DILUPBiCG:  Solving for Uy, Initial residual = 0.1607000532559076, Final residual = 7.015804590688156e-13, No Iterations 2
DILUPBiCG:  Solving for Uz, Initial residual = 0.04667457655504255, Final residual = 1.770611622796731e-13, No Iterations 2
DILUPBiCG:  Solving for e, Initial residual = 0.04589691113154101, Final residual = 1.66453078226582e-13, No Iterations 2
DILUPBiCG:  Solving for p, Initial residual = 0.04652555218199009, Final residual = 7.04352668763865e-07, No Iterations 1
diagonal:  Solving for rho, Initial residual = 0, Final residual = 0, No Iterations 0
time step continuity errors : sum local = 9.027752675052321e-13, global = 9.016096730908053e-13, cumulative = 2.083066239956447e-12
DILUPBiCG:  Solving for p, Initial residual = 7.70773786869921e-07, Final residual = 5.049790630043282e-16, No Iterations 2
diagonal:  Solving for rho, Initial residual = 0, Final residual = 0, No Iterations 0
time step continuity errors : sum local = 1.273187435304602e-16, global = -3.513308161711806e-17, cumulative = 2.08303110687483e-12
DILUPBiCG:  Solving for k, Initial residual = 0.09969816767107527, Final residual = 3.423245646855275e-13, No Iterations 2
ExecutionTime = 47.56 s  ClockTime = 2617 s

ORIG_COMP_STEP = 74.34237599372864
ORIG_IO_STEP = 2.331722974777222
Courant Number mean: 1.727563428324323e-08 max: 0.004213255561684576
deltaT = 4.922235242952019e-07
Time = 2.94734e-06

PIMPLE: iteration 1
diagonal:  Solving for rho, Initial residual = 0, Final residual = 0, No Iterations 0
DILUPBiCG:  Solving for Ux, Initial residual = 0.1602327933869701, Final residual = 4.37380906695104e-18, No Iterations 3
DILUPBiCG:  Solving for Uy, Initial residual = 0.1602327933859981, Final residual = 4.37932125483083e-18, No Iterations 3
DILUPBiCG:  Solving for Uz, Initial residual = 0.04645521806771756, Final residual = 5.389203057044677e-13, No Iterations 2
DILUPBiCG:  Solving for e, Initial residual = 0.04553977633064064, Final residual = 3.98491603317237e-13, No Iterations 2
DILUPBiCG:  Solving for p, Initial residual = 0.0462927386333717, Final residual = 1.048701857179018e-06, No Iterations 1
diagonal:  Solving for rho, Initial residual = 0, Final residual = 0, No Iterations 0
time step continuity errors : sum local = 1.605602517406309e-12, global = 1.603024677109563e-12, cumulative = 3.686055783984393e-12
DILUPBiCG:  Solving for p, Initial residual = 1.17438991195805e-06, Final residual = 1.690383170299558e-15, No Iterations 2
diagonal:  Solving for rho, Initial residual = 0, Final residual = 0, No Iterations 0
time step continuity errors : sum local = 1.639363716731984e-16, global = 1.46673811952575e-17, cumulative = 3.686070451365588e-12
DILUPBiCG:  Solving for k, Initial residual = 0.09947821437656036, Final residual = 8.382838685928893e-13, No Iterations 2
ExecutionTime = 48.91 s  ClockTime = 2699 s

ORIG_COMP_STEP = 79.2896580696106
ORIG_IO_STEP = 2.863485097885132
Courant Number mean: 2.086590654202269e-08 max: 0.005049908991491794
deltaT = 5.906682291542422e-07
Time = 3.53801e-06

PIMPLE: iteration 1
diagonal:  Solving for rho, Initial residual = 0, Final residual = 0, No Iterations 0
DILUPBiCG:  Solving for Ux, Initial residual = 0.1597126711517292, Final residual = 2.239976484323258e-17, No Iterations 3
DILUPBiCG:  Solving for Uy, Initial residual = 0.1597126711510946, Final residual = 2.242111780894523e-17, No Iterations 3
DILUPBiCG:  Solving for Uz, Initial residual = 0.04620866495311191, Final residual = 4.810072694090806e-18, No Iterations 3
DILUPBiCG:  Solving for e, Initial residual = 0.04513513479516035, Final residual = 9.578756792956641e-13, No Iterations 2
DILUPBiCG:  Solving for p, Initial residual = 0.04603549441940838, Final residual = 1.56828445269734e-06, No Iterations 1
diagonal:  Solving for rho, Initial residual = 0, Final residual = 0, No Iterations 0
time step continuity errors : sum local = 2.866126938600295e-12, global = 2.859825286806897e-12, cumulative = 6.545895738172485e-12
DILUPBiCG:  Solving for p, Initial residual = 1.796335671297211e-06, Final residual = 5.719548268633062e-15, No Iterations 2
diagonal:  Solving for rho, Initial residual = 0, Final residual = 0, No Iterations 0
time step continuity errors : sum local = 3.426155872232089e-16, global = 3.417012083033231e-16, cumulative = 6.546237439380789e-12
DILUPBiCG:  Solving for k, Initial residual = 0.09927575577983626, Final residual = 1.63851561383015e-17, No Iterations 3
ExecutionTime = 50.24 s  ClockTime = 2771 s

ORIG_COMP_STEP = 69.07130408287048
ORIG_IO_STEP = 2.020631074905396
Courant Number mean: 2.526175680348302e-08 max: 0.006055606475781683
deltaT = 7.088018749850907e-07
Time = 4.24681e-06

PIMPLE: iteration 1
diagonal:  Solving for rho, Initial residual = 0, Final residual = 0, No Iterations 0
DILUPBiCG:  Solving for Ux, Initial residual = 0.1591320390801655, Final residual = 1.142341249766917e-16, No Iterations 3
DILUPBiCG:  Solving for Uy, Initial residual = 0.1591320390797045, Final residual = 1.143188020720544e-16, No Iterations 3
DILUPBiCG:  Solving for Uz, Initial residual = 0.04593213665005582, Final residual = 2.395850248190837e-17, No Iterations 3
DILUPBiCG:  Solving for e, Initial residual = 0.04467882292873183, Final residual = 2.202510564336691e-17, No Iterations 3
DILUPBiCG:  Solving for p, Initial residual = 0.04575279725691112, Final residual = 2.355709013797823e-06, No Iterations 1
diagonal:  Solving for rho, Initial residual = 0, Final residual = 0, No Iterations 0
time step continuity errors : sum local = 5.134078676260067e-12, global = 5.117863286222048e-12, cumulative = 1.166410072560284e-11
DILUPBiCG:  Solving for p, Initial residual = 2.756529874803348e-06, Final residual = 1.956804312083059e-14, No Iterations 2
diagonal:  Solving for rho, Initial residual = 0, Final residual = 0, No Iterations 0
time step continuity errors : sum local = 3.950314543182859e-16, global = 3.887925437983429e-16, cumulative = 1.166448951814664e-11
DILUPBiCG:  Solving for k, Initial residual = 0.09908999903357492, Final residual = 6.865772469534121e-17, No Iterations 3
ExecutionTime = 51.82 s  ClockTime = 2860 s

ORIG_COMP_STEP = 86.80393099784851
ORIG_IO_STEP = 2.239115953445435
Courant Number mean: 3.068132877958327e-08 max: 0.007267762407950418
deltaT = 8.505622499821088e-07
Time = 5.09737e-06

PIMPLE: iteration 1
diagonal:  Solving for rho, Initial residual = 0, Final residual = 0, No Iterations 0
