/*---------------------------------------------------------------------------*\
| =========                 |                                                 |
| \\      /  F ield         | OpenFOAM: The Open Source CFD Toolbox           |
|  \\    /   O peration     | Version:  v1912                                 |
|   \\  /    A nd           | Website:  www.openfoam.com                      |
|    \\/     M anipulation  |                                                 |
\*---------------------------------------------------------------------------*/
Build  : _f3950763fe-20191219 OPENFOAM=1912
Arch   : "LSB;label=32;scalar=64"
Exec   : rhoPimpleAPIO_METRICS -parallel
Date   : Oct 29 2020
Time   : 04:01:56
Host   : r16c1t1n1
PID    : 107358
I/O    : uncollated
Case   : /lustre/cray/ws9/2/ws/hpcmcast-ashee2/HAWK/apio_256M/8192
nProcs : 8192
Hosts  :
(
    (r16c1t1n1 128)
    (r16c1t1n2 128)
    (r16c1t1n3 128)
    (r16c1t1n4 128)
    (r16c1t2n1 128)
    (r16c1t2n2 128)
    (r16c1t2n3 128)
    (r16c1t2n4 128)
    (r16c1t3n1 128)
    (r16c1t3n2 128)
    (r16c1t3n3 128)
    (r16c1t3n4 128)
    (r16c1t4n1 128)
    (r16c1t4n2 128)
    (r16c1t4n3 128)
    (r16c1t4n4 128)
    (r16c1t5n1 128)
    (r16c1t5n2 128)
    (r16c1t5n3 128)
    (r16c1t5n4 128)
    (r16c1t6n1 128)
    (r16c1t6n2 128)
    (r16c1t6n3 128)
    (r16c1t6n4 128)
    (r16c1t7n1 128)
    (r16c1t7n2 128)
    (r16c1t7n3 128)
    (r16c1t7n4 128)
    (r16c1t8n1 128)
    (r16c1t8n2 128)
    (r16c1t8n3 128)
    (r16c1t8n4 128)
    (r16c2t1n1 128)
    (r16c2t1n2 128)
    (r16c2t1n3 128)
    (r16c2t1n4 128)
    (r16c2t2n1 128)
    (r16c2t2n2 128)
    (r16c2t2n3 128)
    (r16c2t2n4 128)
    (r16c2t3n1 128)
    (r16c2t3n2 128)
    (r16c2t3n3 128)
    (r16c2t3n4 128)
    (r16c2t4n1 128)
    (r16c2t4n2 128)
    (r16c2t4n3 128)
    (r16c2t4n4 128)
    (r16c2t5n1 128)
    (r16c2t5n2 128)
    (r16c2t5n3 128)
    (r16c2t5n4 128)
    (r16c2t6n1 128)
    (r16c2t6n2 128)
    (r16c2t6n4 128)
    (r16c2t7n1 128)
    (r16c2t7n2 128)
    (r16c2t7n4 128)
    (r16c2t8n1 128)
    (r16c2t8n2 128)
    (r16c2t8n3 128)
    (r16c2t8n4 128)
    (r16c2t6n3 128)
    (r16c2t7n3 128)
)
Pstream initialized with:
    floatTransfer      : 0
    nProcsSimpleSum    : 0
    commsType          : nonBlocking
    polling iterations : 0
trapFpe: Floating point exception trapping enabled (FOAM_SIGFPE).
fileModificationChecking : Monitoring run-time modified files using timeStampMaster (fileModificationSkew 10)
allowSystemOperations : Allowing user-supplied system call operations

// * * * * * * * * * * * * * * * * * * * * * * * * * * * * * * * * * * * * * //
Create time

Create mesh for time = 0

/*---------------------------------------------------------------------------*\
| =========                 |                                                 |
| \\      /  F ield         | OpenFOAM: The Open Source CFD Toolbox           |
|  \\    /   O peration     | Version:  v1912                                 |
|   \\  /    A nd           | Website:  www.openfoam.com                      |
|    \\/     M anipulation  |                                                 |
\*---------------------------------------------------------------------------*/
Build  : _f3950763fe-20191219 OPENFOAM=1912
Arch   : "LSB;label=32;scalar=64"
Exec   : rhoPimpleAPIO_METRICS -parallel
Date   : Oct 29 2020
Time   : 16:46:15
Host   : r16c1t1n1
PID    : 124980
I/O    : uncollated
Case   : /lustre/cray/ws9/2/ws/hpcmcast-ashee2/HAWK/apio_256M/8192
nProcs : 8192
Hosts  :
(
    (r16c1t1n1 128)
    (r16c1t1n2 128)
    (r16c1t1n3 128)
    (r16c1t1n4 128)
    (r16c1t2n1 128)
    (r16c1t2n2 128)
    (r16c1t2n3 128)
    (r16c1t2n4 128)
    (r16c1t3n1 128)
    (r16c1t3n2 128)
    (r16c1t3n3 128)
    (r16c1t3n4 128)
    (r16c1t4n1 128)
    (r16c1t4n2 128)
    (r16c1t4n3 128)
    (r16c1t4n4 128)
    (r16c1t5n1 128)
    (r16c1t5n2 128)
    (r16c1t5n3 128)
    (r16c1t5n4 128)
    (r16c1t6n1 128)
    (r16c1t6n2 128)
    (r16c1t6n3 128)
    (r16c1t6n4 128)
    (r16c1t7n1 128)
    (r16c1t7n2 128)
    (r16c1t7n3 128)
    (r16c1t7n4 128)
    (r16c1t8n1 128)
    (r16c1t8n2 128)
    (r16c1t8n3 128)
    (r16c1t8n4 128)
    (r16c2t1n1 128)
    (r16c2t1n2 128)
    (r16c2t1n3 128)
    (r16c2t1n4 128)
    (r16c2t2n1 128)
    (r16c2t2n2 128)
    (r16c2t2n3 128)
    (r16c2t2n4 128)
    (r16c2t3n1 128)
    (r16c2t3n2 128)
    (r16c2t3n3 128)
    (r16c2t3n4 128)
    (r16c2t4n1 128)
    (r16c2t4n2 128)
    (r16c2t4n3 128)
    (r16c2t4n4 128)
    (r16c2t5n1 128)
    (r16c2t5n2 128)
    (r16c2t5n3 128)
    (r16c2t5n4 128)
    (r16c2t6n1 128)
    (r16c2t6n2 128)
    (r16c2t6n4 128)
    (r16c2t7n1 128)
    (r16c2t7n2 128)
    (r16c2t7n4 128)
    (r16c2t8n1 128)
    (r16c2t8n2 128)
    (r16c2t8n3 128)
    (r16c2t8n4 128)
    (r16c2t6n3 128)
    (r16c2t7n3 128)
)
Pstream initialized with:
    floatTransfer      : 0
    nProcsSimpleSum    : 0
    commsType          : nonBlocking
    polling iterations : 0
trapFpe: Floating point exception trapping enabled (FOAM_SIGFPE).
fileModificationChecking : Monitoring run-time modified files using timeStampMaster (fileModificationSkew 10)
allowSystemOperations : Allowing user-supplied system call operations

// * * * * * * * * * * * * * * * * * * * * * * * * * * * * * * * * * * * * * //
Create time

Create mesh for time = 0

/*---------------------------------------------------------------------------*\
| =========                 |                                                 |
| \\      /  F ield         | OpenFOAM: The Open Source CFD Toolbox           |
|  \\    /   O peration     | Version:  v1912                                 |
|   \\  /    A nd           | Website:  www.openfoam.com                      |
|    \\/     M anipulation  |                                                 |
\*---------------------------------------------------------------------------*/
Build  : _f3950763fe-20191219 OPENFOAM=1912
Arch   : "LSB;label=32;scalar=64"
Exec   : rhoPimpleAPIO_METRICS -parallel
Date   : Oct 29 2020
Time   : 22:12:14
Host   : r16c1t1n1
PID    : 134024
I/O    : uncollated
Case   : /lustre/cray/ws9/2/ws/hpcmcast-ashee2/HAWK/apio_256M/8192
nProcs : 8192
Hosts  :
(
    (r16c1t1n1 128)
    (r16c1t1n2 128)
    (r16c1t1n3 128)
    (r16c1t1n4 128)
    (r16c1t2n1 128)
    (r16c1t2n2 128)
    (r16c1t2n3 128)
    (r16c1t2n4 128)
    (r16c1t3n1 128)
    (r16c1t3n2 128)
    (r16c1t3n3 128)
    (r16c1t3n4 128)
    (r16c1t4n1 128)
    (r16c1t4n2 128)
    (r16c1t4n3 128)
    (r16c1t4n4 128)
    (r16c1t5n1 128)
    (r16c1t5n2 128)
    (r16c1t5n3 128)
    (r16c1t5n4 128)
    (r16c1t6n1 128)
    (r16c1t6n2 128)
    (r16c1t6n3 128)
    (r16c1t6n4 128)
    (r16c1t7n1 128)
    (r16c1t7n2 128)
    (r16c1t7n3 128)
    (r16c1t7n4 128)
    (r16c1t8n1 128)
    (r16c1t8n2 128)
    (r16c1t8n3 128)
    (r16c1t8n4 128)
    (r16c2t1n1 128)
    (r16c2t1n2 128)
    (r16c2t1n3 128)
    (r16c2t1n4 128)
    (r16c2t2n1 128)
    (r16c2t2n2 128)
    (r16c2t2n3 128)
    (r16c2t2n4 128)
    (r16c2t3n1 128)
    (r16c2t3n2 128)
    (r16c2t3n3 128)
    (r16c2t3n4 128)
    (r16c2t4n1 128)
    (r16c2t4n2 128)
    (r16c2t4n3 128)
    (r16c2t4n4 128)
    (r16c2t5n1 128)
    (r16c2t5n2 128)
    (r16c2t5n3 128)
    (r16c2t5n4 128)
    (r16c2t6n1 128)
    (r16c2t6n2 128)
    (r16c2t6n4 128)
    (r16c2t7n1 128)
    (r16c2t7n2 128)
    (r16c2t7n4 128)
    (r16c2t8n1 128)
    (r16c2t8n2 128)
    (r16c2t8n3 128)
    (r16c2t8n4 128)
    (r16c2t6n3 128)
    (r16c2t7n3 128)
)
Pstream initialized with:
    floatTransfer      : 0
    nProcsSimpleSum    : 0
    commsType          : nonBlocking
    polling iterations : 0
trapFpe: Floating point exception trapping enabled (FOAM_SIGFPE).
fileModificationChecking : Monitoring run-time modified files using timeStampMaster (fileModificationSkew 10)
allowSystemOperations : Allowing user-supplied system call operations

// * * * * * * * * * * * * * * * * * * * * * * * * * * * * * * * * * * * * * //
Create time

Create mesh for time = 0

/*---------------------------------------------------------------------------*\
| =========                 |                                                 |
| \\      /  F ield         | OpenFOAM: The Open Source CFD Toolbox           |
|  \\    /   O peration     | Version:  v1912                                 |
|   \\  /    A nd           | Website:  www.openfoam.com                      |
|    \\/     M anipulation  |                                                 |
\*---------------------------------------------------------------------------*/
Build  : _f3950763fe-20191219 OPENFOAM=1912
Arch   : "LSB;label=32;scalar=64"
Exec   : rhoPimpleAPIO_METRICS -parallel
Date   : Oct 30 2020
Time   : 00:32:38
Host   : r16c1t1n1
PID    : 139324
I/O    : uncollated
Case   : /lustre/cray/ws9/2/ws/hpcmcast-ashee2/HAWK/apio_256M/8192
nProcs : 8192
Hosts  :
(
    (r16c1t1n1 128)
    (r16c1t1n2 128)
    (r16c1t1n3 128)
    (r16c1t1n4 128)
    (r16c1t2n1 128)
    (r16c1t2n2 128)
    (r16c1t2n3 128)
    (r16c1t2n4 128)
    (r16c1t3n1 128)
    (r16c1t3n2 128)
    (r16c1t3n3 128)
    (r16c1t3n4 128)
    (r16c1t4n1 128)
    (r16c1t4n2 128)
    (r16c1t4n3 128)
    (r16c1t4n4 128)
    (r16c1t5n1 128)
    (r16c1t5n2 128)
    (r16c1t5n3 128)
    (r16c1t5n4 128)
    (r16c1t6n1 128)
    (r16c1t6n2 128)
    (r16c1t6n3 128)
    (r16c1t6n4 128)
    (r16c1t7n1 128)
    (r16c1t7n2 128)
    (r16c1t7n3 128)
    (r16c1t7n4 128)
    (r16c1t8n1 128)
    (r16c1t8n2 128)
    (r16c1t8n3 128)
    (r16c1t8n4 128)
    (r16c2t1n1 128)
    (r16c2t1n2 128)
    (r16c2t1n3 128)
    (r16c2t1n4 128)
    (r16c2t2n1 128)
    (r16c2t2n2 128)
    (r16c2t2n3 128)
    (r16c2t2n4 128)
    (r16c2t3n1 128)
    (r16c2t3n2 128)
    (r16c2t3n3 128)
    (r16c2t3n4 128)
    (r16c2t4n1 128)
    (r16c2t4n2 128)
    (r16c2t4n3 128)
    (r16c2t4n4 128)
    (r16c2t5n1 128)
    (r16c2t5n2 128)
    (r16c2t5n3 128)
    (r16c2t5n4 128)
    (r16c2t6n1 128)
    (r16c2t6n2 128)
    (r16c2t6n4 128)
    (r16c2t7n1 128)
    (r16c2t7n2 128)
    (r16c2t7n4 128)
    (r16c2t8n1 128)
    (r16c2t8n2 128)
    (r16c2t8n3 128)
    (r16c2t8n4 128)
    (r16c2t6n3 128)
    (r16c2t7n3 128)
)
Pstream initialized with:
    floatTransfer      : 0
    nProcsSimpleSum    : 0
    commsType          : nonBlocking
    polling iterations : 0
trapFpe: Floating point exception trapping enabled (FOAM_SIGFPE).
fileModificationChecking : Monitoring run-time modified files using timeStampMaster (fileModificationSkew 10)
allowSystemOperations : Allowing user-supplied system call operations

// * * * * * * * * * * * * * * * * * * * * * * * * * * * * * * * * * * * * * //
Create time

Create mesh for time = 0

/*---------------------------------------------------------------------------*\
| =========                 |                                                 |
| \\      /  F ield         | OpenFOAM: The Open Source CFD Toolbox           |
|  \\    /   O peration     | Version:  v1912                                 |
|   \\  /    A nd           | Website:  www.openfoam.com                      |
|    \\/     M anipulation  |                                                 |
\*---------------------------------------------------------------------------*/
Build  : _f3950763fe-20191219 OPENFOAM=1912
Arch   : "LSB;label=32;scalar=64"
Exec   : rhoPimpleAPIO_METRICS -parallel
Date   : Oct 30 2020
Time   : 02:20:44
Host   : r16c1t1n1
PID    : 143917
I/O    : uncollated
Case   : /lustre/cray/ws9/2/ws/hpcmcast-ashee2/HAWK/apio_256M/8192
nProcs : 8192
Hosts  :
(
    (r16c1t1n1 128)
    (r16c1t1n2 128)
    (r16c1t1n3 128)
    (r16c1t1n4 128)
    (r16c1t2n1 128)
    (r16c1t2n2 128)
    (r16c1t2n3 128)
    (r16c1t2n4 128)
    (r16c1t3n1 128)
    (r16c1t3n2 128)
    (r16c1t3n3 128)
    (r16c1t3n4 128)
    (r16c1t4n1 128)
    (r16c1t4n2 128)
    (r16c1t4n3 128)
    (r16c1t4n4 128)
    (r16c1t5n1 128)
    (r16c1t5n2 128)
    (r16c1t5n3 128)
    (r16c1t5n4 128)
    (r16c1t6n1 128)
    (r16c1t6n2 128)
    (r16c1t6n3 128)
    (r16c1t6n4 128)
    (r16c1t7n1 128)
    (r16c1t7n2 128)
    (r16c1t7n3 128)
    (r16c1t7n4 128)
    (r16c1t8n1 128)
    (r16c1t8n2 128)
    (r16c1t8n3 128)
    (r16c1t8n4 128)
    (r16c2t1n1 128)
    (r16c2t1n2 128)
    (r16c2t1n3 128)
    (r16c2t1n4 128)
    (r16c2t2n1 128)
    (r16c2t2n2 128)
    (r16c2t2n3 128)
    (r16c2t2n4 128)
    (r16c2t3n1 128)
    (r16c2t3n2 128)
    (r16c2t3n3 128)
    (r16c2t3n4 128)
    (r16c2t4n1 128)
    (r16c2t4n2 128)
    (r16c2t4n3 128)
    (r16c2t4n4 128)
    (r16c2t5n1 128)
    (r16c2t5n2 128)
    (r16c2t5n3 128)
    (r16c2t5n4 128)
    (r16c2t6n1 128)
    (r16c2t6n2 128)
    (r16c2t6n4 128)
    (r16c2t7n1 128)
    (r16c2t7n2 128)
    (r16c2t7n4 128)
    (r16c2t8n1 128)
    (r16c2t8n2 128)
    (r16c2t8n3 128)
    (r16c2t8n4 128)
    (r16c2t6n3 128)
    (r16c2t7n3 128)
)
Pstream initialized with:
    floatTransfer      : 0
    nProcsSimpleSum    : 0
    commsType          : nonBlocking
    polling iterations : 0
trapFpe: Floating point exception trapping enabled (FOAM_SIGFPE).
fileModificationChecking : Monitoring run-time modified files using timeStampMaster (fileModificationSkew 10)
allowSystemOperations : Allowing user-supplied system call operations

// * * * * * * * * * * * * * * * * * * * * * * * * * * * * * * * * * * * * * //
Create time

Create mesh for time = 0

/*---------------------------------------------------------------------------*\
| =========                 |                                                 |
| \\      /  F ield         | OpenFOAM: The Open Source CFD Toolbox           |
|  \\    /   O peration     | Version:  v1912                                 |
|   \\  /    A nd           | Website:  www.openfoam.com                      |
|    \\/     M anipulation  |                                                 |
\*---------------------------------------------------------------------------*/
Build  : _f3950763fe-20191219 OPENFOAM=1912
Arch   : "LSB;label=32;scalar=64"
Exec   : rhoPimpleAPIO_METRICS -parallel
Date   : Oct 30 2020
Time   : 03:03:49
Host   : r16c1t1n1
PID    : 147358
I/O    : uncollated
Case   : /lustre/cray/ws9/2/ws/hpcmcast-ashee2/HAWK/apio_256M/8192
nProcs : 8192
Hosts  :
(
    (r16c1t1n1 128)
    (r16c1t1n2 128)
    (r16c1t1n3 128)
    (r16c1t1n4 128)
    (r16c1t2n1 128)
    (r16c1t2n2 128)
    (r16c1t2n3 128)
    (r16c1t2n4 128)
    (r16c1t3n1 128)
    (r16c1t3n2 128)
    (r16c1t3n3 128)
    (r16c1t3n4 128)
    (r16c1t4n1 128)
    (r16c1t4n2 128)
    (r16c1t4n3 128)
    (r16c1t4n4 128)
    (r16c1t5n1 128)
    (r16c1t5n2 128)
    (r16c1t5n3 128)
    (r16c1t5n4 128)
    (r16c1t6n1 128)
    (r16c1t6n2 128)
    (r16c1t6n3 128)
    (r16c1t6n4 128)
    (r16c1t7n1 128)
    (r16c1t7n2 128)
    (r16c1t7n3 128)
    (r16c1t7n4 128)
    (r16c1t8n1 128)
    (r16c1t8n2 128)
    (r16c1t8n3 128)
    (r16c1t8n4 128)
    (r16c2t1n1 128)
    (r16c2t1n2 128)
    (r16c2t1n3 128)
    (r16c2t1n4 128)
    (r16c2t2n1 128)
    (r16c2t2n2 128)
    (r16c2t2n3 128)
    (r16c2t2n4 128)
    (r16c2t3n1 128)
    (r16c2t3n2 128)
    (r16c2t3n3 128)
    (r16c2t3n4 128)
    (r16c2t4n1 128)
    (r16c2t4n2 128)
    (r16c2t4n3 128)
    (r16c2t4n4 128)
    (r16c2t5n1 128)
    (r16c2t5n2 128)
    (r16c2t5n3 128)
    (r16c2t5n4 128)
    (r16c2t6n1 128)
    (r16c2t6n2 128)
    (r16c2t6n4 128)
    (r16c2t7n1 128)
    (r16c2t7n2 128)
    (r16c2t7n4 128)
    (r16c2t8n1 128)
    (r16c2t8n2 128)
    (r16c2t8n3 128)
    (r16c2t8n4 128)
    (r16c2t6n3 128)
    (r16c2t7n3 128)
)
Pstream initialized with:
    floatTransfer      : 0
    nProcsSimpleSum    : 0
    commsType          : nonBlocking
    polling iterations : 0
trapFpe: Floating point exception trapping enabled (FOAM_SIGFPE).
fileModificationChecking : Monitoring run-time modified files using timeStampMaster (fileModificationSkew 10)
allowSystemOperations : Allowing user-supplied system call operations

// * * * * * * * * * * * * * * * * * * * * * * * * * * * * * * * * * * * * * //
Create time

Create mesh for time = 0

/*---------------------------------------------------------------------------*\
| =========                 |                                                 |
| \\      /  F ield         | OpenFOAM: The Open Source CFD Toolbox           |
|  \\    /   O peration     | Version:  v1912                                 |
|   \\  /    A nd           | Website:  www.openfoam.com                      |
|    \\/     M anipulation  |                                                 |
\*---------------------------------------------------------------------------*/
Build  : _f3950763fe-20191219 OPENFOAM=1912
Arch   : "LSB;label=32;scalar=64"
Exec   : rhoPimpleAPIO_METRICS -parallel
Date   : Oct 30 2020
Time   : 03:04:31
Host   : r16c1t1n1
PID    : 149952
I/O    : uncollated
Case   : /lustre/cray/ws9/2/ws/hpcmcast-ashee2/HAWK/apio_256M/8192
nProcs : 8192
Hosts  :
(
    (r16c1t1n1 128)
    (r16c1t1n2 128)
    (r16c1t1n3 128)
    (r16c1t1n4 128)
    (r16c1t2n1 128)
    (r16c1t2n2 128)
    (r16c1t2n3 128)
    (r16c1t2n4 128)
    (r16c1t3n1 128)
    (r16c1t3n2 128)
    (r16c1t3n3 128)
    (r16c1t3n4 128)
    (r16c1t4n1 128)
    (r16c1t4n2 128)
    (r16c1t4n3 128)
    (r16c1t4n4 128)
    (r16c1t5n1 128)
    (r16c1t5n2 128)
    (r16c1t5n3 128)
    (r16c1t5n4 128)
    (r16c1t6n1 128)
    (r16c1t6n2 128)
    (r16c1t6n3 128)
    (r16c1t6n4 128)
    (r16c1t7n1 128)
    (r16c1t7n2 128)
    (r16c1t7n3 128)
    (r16c1t7n4 128)
    (r16c1t8n1 128)
    (r16c1t8n2 128)
    (r16c1t8n3 128)
    (r16c1t8n4 128)
    (r16c2t1n1 128)
    (r16c2t1n2 128)
    (r16c2t1n3 128)
    (r16c2t1n4 128)
    (r16c2t2n1 128)
    (r16c2t2n2 128)
    (r16c2t2n3 128)
    (r16c2t2n4 128)
    (r16c2t3n1 128)
    (r16c2t3n2 128)
    (r16c2t3n3 128)
    (r16c2t3n4 128)
    (r16c2t4n1 128)
    (r16c2t4n2 128)
    (r16c2t4n3 128)
    (r16c2t4n4 128)
    (r16c2t5n1 128)
    (r16c2t5n2 128)
    (r16c2t5n3 128)
    (r16c2t5n4 128)
    (r16c2t6n1 128)
    (r16c2t6n2 128)
    (r16c2t6n4 128)
    (r16c2t7n1 128)
    (r16c2t7n2 128)
    (r16c2t7n4 128)
    (r16c2t8n1 128)
    (r16c2t8n2 128)
    (r16c2t8n3 128)
    (r16c2t8n4 128)
    (r16c2t6n3 128)
    (r16c2t7n3 128)
)
Pstream initialized with:
    floatTransfer      : 0
    nProcsSimpleSum    : 0
    commsType          : nonBlocking
    polling iterations : 0
trapFpe: Floating point exception trapping enabled (FOAM_SIGFPE).
fileModificationChecking : Monitoring run-time modified files using timeStampMaster (fileModificationSkew 10)
allowSystemOperations : Allowing user-supplied system call operations

// * * * * * * * * * * * * * * * * * * * * * * * * * * * * * * * * * * * * * //
Create time

Create mesh for time = 0

/*---------------------------------------------------------------------------*\
| =========                 |                                                 |
| \\      /  F ield         | OpenFOAM: The Open Source CFD Toolbox           |
|  \\    /   O peration     | Version:  v1912                                 |
|   \\  /    A nd           | Website:  www.openfoam.com                      |
|    \\/     M anipulation  |                                                 |
\*---------------------------------------------------------------------------*/
Build  : _f3950763fe-20191219 OPENFOAM=1912
Arch   : "LSB;label=32;scalar=64"
Exec   : rhoPimpleAPIO_METRICS -parallel
Date   : Oct 30 2020
Time   : 03:05:10
Host   : r16c1t1n1
PID    : 152540
I/O    : uncollated
Case   : /lustre/cray/ws9/2/ws/hpcmcast-ashee2/HAWK/apio_256M/8192
nProcs : 8192
Hosts  :
(
    (r16c1t1n1 128)
    (r16c1t1n2 128)
    (r16c1t1n3 128)
    (r16c1t1n4 128)
    (r16c1t2n1 128)
    (r16c1t2n2 128)
    (r16c1t2n3 128)
    (r16c1t2n4 128)
    (r16c1t3n1 128)
    (r16c1t3n2 128)
    (r16c1t3n3 128)
    (r16c1t3n4 128)
    (r16c1t4n1 128)
    (r16c1t4n2 128)
    (r16c1t4n3 128)
    (r16c1t4n4 128)
    (r16c1t5n1 128)
    (r16c1t5n2 128)
    (r16c1t5n3 128)
    (r16c1t5n4 128)
    (r16c1t6n1 128)
    (r16c1t6n2 128)
    (r16c1t6n3 128)
    (r16c1t6n4 128)
    (r16c1t7n1 128)
    (r16c1t7n2 128)
    (r16c1t7n3 128)
    (r16c1t7n4 128)
    (r16c1t8n1 128)
    (r16c1t8n2 128)
    (r16c1t8n3 128)
    (r16c1t8n4 128)
    (r16c2t1n1 128)
    (r16c2t1n2 128)
    (r16c2t1n3 128)
    (r16c2t1n4 128)
    (r16c2t2n1 128)
    (r16c2t2n2 128)
    (r16c2t2n3 128)
    (r16c2t2n4 128)
    (r16c2t3n1 128)
    (r16c2t3n2 128)
    (r16c2t3n3 128)
    (r16c2t3n4 128)
    (r16c2t4n1 128)
    (r16c2t4n2 128)
    (r16c2t4n3 128)
    (r16c2t4n4 128)
    (r16c2t5n1 128)
    (r16c2t5n2 128)
    (r16c2t5n3 128)
    (r16c2t5n4 128)
    (r16c2t6n1 128)
    (r16c2t6n2 128)
    (r16c2t6n4 128)
    (r16c2t7n1 128)
    (r16c2t7n2 128)
    (r16c2t7n4 128)
    (r16c2t8n1 128)
    (r16c2t8n2 128)
    (r16c2t8n3 128)
    (r16c2t8n4 128)
    (r16c2t6n3 128)
    (r16c2t7n3 128)
)
Pstream initialized with:
    floatTransfer      : 0
    nProcsSimpleSum    : 0
    commsType          : nonBlocking
    polling iterations : 0
trapFpe: Floating point exception trapping enabled (FOAM_SIGFPE).
fileModificationChecking : Monitoring run-time modified files using timeStampMaster (fileModificationSkew 10)
allowSystemOperations : Allowing user-supplied system call operations

// * * * * * * * * * * * * * * * * * * * * * * * * * * * * * * * * * * * * * //
Create time

Create mesh for time = 0

/*---------------------------------------------------------------------------*\
| =========                 |                                                 |
| \\      /  F ield         | OpenFOAM: The Open Source CFD Toolbox           |
|  \\    /   O peration     | Version:  v1912                                 |
|   \\  /    A nd           | Website:  www.openfoam.com                      |
|    \\/     M anipulation  |                                                 |
\*---------------------------------------------------------------------------*/
Build  : _f3950763fe-20191219 OPENFOAM=1912
Arch   : "LSB;label=32;scalar=64"
Exec   : rhoPimpleAPIO_METRICS -parallel
Date   : Oct 30 2020
Time   : 03:05:50
Host   : r16c1t1n1
PID    : 155129
I/O    : uncollated
Case   : /lustre/cray/ws9/2/ws/hpcmcast-ashee2/HAWK/apio_256M/8192
nProcs : 8192
Hosts  :
(
    (r16c1t1n1 128)
    (r16c1t1n2 128)
    (r16c1t1n3 128)
    (r16c1t1n4 128)
    (r16c1t2n1 128)
    (r16c1t2n2 128)
    (r16c1t2n3 128)
    (r16c1t2n4 128)
    (r16c1t3n1 128)
    (r16c1t3n2 128)
    (r16c1t3n3 128)
    (r16c1t3n4 128)
    (r16c1t4n1 128)
    (r16c1t4n2 128)
    (r16c1t4n3 128)
    (r16c1t4n4 128)
    (r16c1t5n1 128)
    (r16c1t5n2 128)
    (r16c1t5n3 128)
    (r16c1t5n4 128)
    (r16c1t6n1 128)
    (r16c1t6n2 128)
    (r16c1t6n3 128)
    (r16c1t6n4 128)
    (r16c1t7n1 128)
    (r16c1t7n2 128)
    (r16c1t7n3 128)
    (r16c1t7n4 128)
    (r16c1t8n1 128)
    (r16c1t8n2 128)
    (r16c1t8n3 128)
    (r16c1t8n4 128)
    (r16c2t1n1 128)
    (r16c2t1n2 128)
    (r16c2t1n3 128)
    (r16c2t1n4 128)
    (r16c2t2n1 128)
    (r16c2t2n2 128)
    (r16c2t2n3 128)
    (r16c2t2n4 128)
    (r16c2t3n1 128)
    (r16c2t3n2 128)
    (r16c2t3n3 128)
    (r16c2t3n4 128)
    (r16c2t4n1 128)
    (r16c2t4n2 128)
    (r16c2t4n3 128)
    (r16c2t4n4 128)
    (r16c2t5n1 128)
    (r16c2t5n2 128)
    (r16c2t5n3 128)
    (r16c2t5n4 128)
    (r16c2t6n1 128)
    (r16c2t6n2 128)
    (r16c2t6n4 128)
    (r16c2t7n1 128)
    (r16c2t7n2 128)
    (r16c2t7n4 128)
    (r16c2t8n1 128)
    (r16c2t8n2 128)
    (r16c2t8n3 128)
    (r16c2t8n4 128)
    (r16c2t6n3 128)
    (r16c2t7n3 128)
)
Pstream initialized with:
    floatTransfer      : 0
    nProcsSimpleSum    : 0
    commsType          : nonBlocking
    polling iterations : 0
trapFpe: Floating point exception trapping enabled (FOAM_SIGFPE).
fileModificationChecking : Monitoring run-time modified files using timeStampMaster (fileModificationSkew 10)
allowSystemOperations : Allowing user-supplied system call operations

// * * * * * * * * * * * * * * * * * * * * * * * * * * * * * * * * * * * * * //
Create time

Create mesh for time = 0

/*---------------------------------------------------------------------------*\
| =========                 |                                                 |
| \\      /  F ield         | OpenFOAM: The Open Source CFD Toolbox           |
|  \\    /   O peration     | Version:  v1912                                 |
|   \\  /    A nd           | Website:  www.openfoam.com                      |
|    \\/     M anipulation  |                                                 |
\*---------------------------------------------------------------------------*/
Build  : _f3950763fe-20191219 OPENFOAM=1912
Arch   : "LSB;label=32;scalar=64"
Exec   : rhoPimpleAPIO_METRICS -parallel
Date   : Oct 30 2020
Time   : 03:06:31
Host   : r16c1t1n1
PID    : 157712
I/O    : uncollated
Case   : /lustre/cray/ws9/2/ws/hpcmcast-ashee2/HAWK/apio_256M/8192
nProcs : 8192
Hosts  :
(
    (r16c1t1n1 128)
    (r16c1t1n2 128)
    (r16c1t1n3 128)
    (r16c1t1n4 128)
    (r16c1t2n1 128)
    (r16c1t2n2 128)
    (r16c1t2n3 128)
    (r16c1t2n4 128)
    (r16c1t3n1 128)
    (r16c1t3n2 128)
    (r16c1t3n3 128)
    (r16c1t3n4 128)
    (r16c1t4n1 128)
    (r16c1t4n2 128)
    (r16c1t4n3 128)
    (r16c1t4n4 128)
    (r16c1t5n1 128)
    (r16c1t5n2 128)
    (r16c1t5n3 128)
    (r16c1t5n4 128)
    (r16c1t6n1 128)
    (r16c1t6n2 128)
    (r16c1t6n3 128)
    (r16c1t6n4 128)
    (r16c1t7n1 128)
    (r16c1t7n2 128)
    (r16c1t7n3 128)
    (r16c1t7n4 128)
    (r16c1t8n1 128)
    (r16c1t8n2 128)
    (r16c1t8n3 128)
    (r16c1t8n4 128)
    (r16c2t1n1 128)
    (r16c2t1n2 128)
    (r16c2t1n3 128)
    (r16c2t1n4 128)
    (r16c2t2n1 128)
    (r16c2t2n2 128)
    (r16c2t2n3 128)
    (r16c2t2n4 128)
    (r16c2t3n1 128)
    (r16c2t3n2 128)
    (r16c2t3n3 128)
    (r16c2t3n4 128)
    (r16c2t4n1 128)
    (r16c2t4n2 128)
    (r16c2t4n3 128)
    (r16c2t4n4 128)
    (r16c2t5n1 128)
    (r16c2t5n2 128)
    (r16c2t5n3 128)
    (r16c2t5n4 128)
    (r16c2t6n1 128)
    (r16c2t6n2 128)
    (r16c2t6n4 128)
    (r16c2t7n1 128)
    (r16c2t7n2 128)
    (r16c2t7n4 128)
    (r16c2t8n1 128)
    (r16c2t8n2 128)
    (r16c2t8n3 128)
    (r16c2t8n4 128)
    (r16c2t6n3 128)
    (r16c2t7n3 128)
)
Pstream initialized with:
    floatTransfer      : 0
    nProcsSimpleSum    : 0
    commsType          : nonBlocking
    polling iterations : 0
trapFpe: Floating point exception trapping enabled (FOAM_SIGFPE).
fileModificationChecking : Monitoring run-time modified files using timeStampMaster (fileModificationSkew 10)
allowSystemOperations : Allowing user-supplied system call operations

// * * * * * * * * * * * * * * * * * * * * * * * * * * * * * * * * * * * * * //
Create time

Create mesh for time = 0

/*---------------------------------------------------------------------------*\
| =========                 |                                                 |
| \\      /  F ield         | OpenFOAM: The Open Source CFD Toolbox           |
|  \\    /   O peration     | Version:  v1912                                 |
|   \\  /    A nd           | Website:  www.openfoam.com                      |
|    \\/     M anipulation  |                                                 |
\*---------------------------------------------------------------------------*/
Build  : _f3950763fe-20191219 OPENFOAM=1912
Arch   : "LSB;label=32;scalar=64"
Exec   : rhoPimpleAPIO_METRICS -parallel
Date   : Oct 30 2020
Time   : 03:07:14
Host   : r16c1t1n1
PID    : 160319
I/O    : uncollated
Case   : /lustre/cray/ws9/2/ws/hpcmcast-ashee2/HAWK/apio_256M/8192
nProcs : 8192
Hosts  :
(
    (r16c1t1n1 128)
    (r16c1t1n2 128)
    (r16c1t1n3 128)
    (r16c1t1n4 128)
    (r16c1t2n1 128)
    (r16c1t2n2 128)
    (r16c1t2n3 128)
    (r16c1t2n4 128)
    (r16c1t3n1 128)
    (r16c1t3n2 128)
    (r16c1t3n3 128)
    (r16c1t3n4 128)
    (r16c1t4n1 128)
    (r16c1t4n2 128)
    (r16c1t4n3 128)
    (r16c1t4n4 128)
    (r16c1t5n1 128)
    (r16c1t5n2 128)
    (r16c1t5n3 128)
    (r16c1t5n4 128)
    (r16c1t6n1 128)
    (r16c1t6n2 128)
    (r16c1t6n3 128)
    (r16c1t6n4 128)
    (r16c1t7n1 128)
    (r16c1t7n2 128)
    (r16c1t7n3 128)
    (r16c1t7n4 128)
    (r16c1t8n1 128)
    (r16c1t8n2 128)
    (r16c1t8n3 128)
    (r16c1t8n4 128)
    (r16c2t1n1 128)
    (r16c2t1n2 128)
    (r16c2t1n3 128)
    (r16c2t1n4 128)
    (r16c2t2n1 128)
    (r16c2t2n2 128)
    (r16c2t2n3 128)
    (r16c2t2n4 128)
    (r16c2t3n1 128)
    (r16c2t3n2 128)
    (r16c2t3n3 128)
    (r16c2t3n4 128)
    (r16c2t4n1 128)
    (r16c2t4n2 128)
    (r16c2t4n3 128)
    (r16c2t4n4 128)
    (r16c2t5n1 128)
    (r16c2t5n2 128)
    (r16c2t5n3 128)
    (r16c2t5n4 128)
    (r16c2t6n1 128)
    (r16c2t6n2 128)
    (r16c2t6n4 128)
    (r16c2t7n1 128)
    (r16c2t7n2 128)
    (r16c2t7n4 128)
    (r16c2t8n1 128)
    (r16c2t8n2 128)
    (r16c2t8n3 128)
    (r16c2t8n4 128)
    (r16c2t6n3 128)
    (r16c2t7n3 128)
)
Pstream initialized with:
    floatTransfer      : 0
    nProcsSimpleSum    : 0
    commsType          : nonBlocking
    polling iterations : 0
trapFpe: Floating point exception trapping enabled (FOAM_SIGFPE).
fileModificationChecking : Monitoring run-time modified files using timeStampMaster (fileModificationSkew 10)
allowSystemOperations : Allowing user-supplied system call operations

// * * * * * * * * * * * * * * * * * * * * * * * * * * * * * * * * * * * * * //
Create time

Create mesh for time = 0

/*---------------------------------------------------------------------------*\
| =========                 |                                                 |
| \\      /  F ield         | OpenFOAM: The Open Source CFD Toolbox           |
|  \\    /   O peration     | Version:  v1912                                 |
|   \\  /    A nd           | Website:  www.openfoam.com                      |
|    \\/     M anipulation  |                                                 |
\*---------------------------------------------------------------------------*/
Build  : _f3950763fe-20191219 OPENFOAM=1912
Arch   : "LSB;label=32;scalar=64"
Exec   : rhoPimpleAPIO_METRICS -parallel
Date   : Oct 30 2020
Time   : 03:07:55
Host   : r16c1t1n1
PID    : 162908
I/O    : uncollated
Case   : /lustre/cray/ws9/2/ws/hpcmcast-ashee2/HAWK/apio_256M/8192
nProcs : 8192
Hosts  :
(
    (r16c1t1n1 128)
    (r16c1t1n2 128)
    (r16c1t1n3 128)
    (r16c1t1n4 128)
    (r16c1t2n1 128)
    (r16c1t2n2 128)
    (r16c1t2n3 128)
    (r16c1t2n4 128)
    (r16c1t3n1 128)
    (r16c1t3n2 128)
    (r16c1t3n3 128)
    (r16c1t3n4 128)
    (r16c1t4n1 128)
    (r16c1t4n2 128)
    (r16c1t4n3 128)
    (r16c1t4n4 128)
    (r16c1t5n1 128)
    (r16c1t5n2 128)
    (r16c1t5n3 128)
    (r16c1t5n4 128)
    (r16c1t6n1 128)
    (r16c1t6n2 128)
    (r16c1t6n3 128)
    (r16c1t6n4 128)
    (r16c1t7n1 128)
    (r16c1t7n2 128)
    (r16c1t7n3 128)
    (r16c1t7n4 128)
    (r16c1t8n1 128)
    (r16c1t8n2 128)
    (r16c1t8n3 128)
    (r16c1t8n4 128)
    (r16c2t1n1 128)
    (r16c2t1n2 128)
    (r16c2t1n3 128)
    (r16c2t1n4 128)
    (r16c2t2n1 128)
    (r16c2t2n2 128)
    (r16c2t2n3 128)
    (r16c2t2n4 128)
    (r16c2t3n1 128)
    (r16c2t3n2 128)
    (r16c2t3n3 128)
    (r16c2t3n4 128)
    (r16c2t4n1 128)
    (r16c2t4n2 128)
    (r16c2t4n3 128)
    (r16c2t4n4 128)
    (r16c2t5n1 128)
    (r16c2t5n2 128)
    (r16c2t5n3 128)
    (r16c2t5n4 128)
    (r16c2t6n1 128)
    (r16c2t6n2 128)
    (r16c2t6n4 128)
    (r16c2t7n1 128)
    (r16c2t7n2 128)
    (r16c2t7n4 128)
    (r16c2t8n1 128)
    (r16c2t8n2 128)
    (r16c2t8n3 128)
    (r16c2t8n4 128)
    (r16c2t6n3 128)
    (r16c2t7n3 128)
)
Pstream initialized with:
    floatTransfer      : 0
    nProcsSimpleSum    : 0
    commsType          : nonBlocking
    polling iterations : 0
trapFpe: Floating point exception trapping enabled (FOAM_SIGFPE).
fileModificationChecking : Monitoring run-time modified files using timeStampMaster (fileModificationSkew 10)
allowSystemOperations : Allowing user-supplied system call operations

// * * * * * * * * * * * * * * * * * * * * * * * * * * * * * * * * * * * * * //
Create time

Create mesh for time = 0

/*---------------------------------------------------------------------------*\
| =========                 |                                                 |
| \\      /  F ield         | OpenFOAM: The Open Source CFD Toolbox           |
|  \\    /   O peration     | Version:  v1912                                 |
|   \\  /    A nd           | Website:  www.openfoam.com                      |
|    \\/     M anipulation  |                                                 |
\*---------------------------------------------------------------------------*/
Build  : _f3950763fe-20191219 OPENFOAM=1912
Arch   : "LSB;label=32;scalar=64"
Exec   : rhoPimpleAPIO_METRICS -parallel
Date   : Oct 30 2020
Time   : 03:08:35
Host   : r16c1t1n1
PID    : 165495
I/O    : uncollated
Case   : /lustre/cray/ws9/2/ws/hpcmcast-ashee2/HAWK/apio_256M/8192
nProcs : 8192
Hosts  :
(
    (r16c1t1n1 128)
    (r16c1t1n2 128)
    (r16c1t1n3 128)
    (r16c1t1n4 128)
    (r16c1t2n1 128)
    (r16c1t2n2 128)
    (r16c1t2n3 128)
    (r16c1t2n4 128)
    (r16c1t3n1 128)
    (r16c1t3n2 128)
    (r16c1t3n3 128)
    (r16c1t3n4 128)
    (r16c1t4n1 128)
    (r16c1t4n2 128)
    (r16c1t4n3 128)
    (r16c1t4n4 128)
    (r16c1t5n1 128)
    (r16c1t5n2 128)
    (r16c1t5n3 128)
    (r16c1t5n4 128)
    (r16c1t6n1 128)
    (r16c1t6n2 128)
    (r16c1t6n3 128)
    (r16c1t6n4 128)
    (r16c1t7n1 128)
    (r16c1t7n2 128)
    (r16c1t7n3 128)
    (r16c1t7n4 128)
    (r16c1t8n1 128)
    (r16c1t8n2 128)
    (r16c1t8n3 128)
    (r16c1t8n4 128)
    (r16c2t1n1 128)
    (r16c2t1n2 128)
    (r16c2t1n3 128)
    (r16c2t1n4 128)
    (r16c2t2n1 128)
    (r16c2t2n2 128)
    (r16c2t2n3 128)
    (r16c2t2n4 128)
    (r16c2t3n1 128)
    (r16c2t3n2 128)
    (r16c2t3n3 128)
    (r16c2t3n4 128)
    (r16c2t4n1 128)
    (r16c2t4n2 128)
    (r16c2t4n3 128)
    (r16c2t4n4 128)
    (r16c2t5n1 128)
    (r16c2t5n2 128)
    (r16c2t5n3 128)
    (r16c2t5n4 128)
    (r16c2t6n1 128)
    (r16c2t6n2 128)
    (r16c2t6n4 128)
    (r16c2t7n1 128)
    (r16c2t7n2 128)
    (r16c2t7n4 128)
    (r16c2t8n1 128)
    (r16c2t8n2 128)
    (r16c2t8n3 128)
    (r16c2t8n4 128)
    (r16c2t6n3 128)
    (r16c2t7n3 128)
)
Pstream initialized with:
    floatTransfer      : 0
    nProcsSimpleSum    : 0
    commsType          : nonBlocking
    polling iterations : 0
trapFpe: Floating point exception trapping enabled (FOAM_SIGFPE).
fileModificationChecking : Monitoring run-time modified files using timeStampMaster (fileModificationSkew 10)
allowSystemOperations : Allowing user-supplied system call operations

// * * * * * * * * * * * * * * * * * * * * * * * * * * * * * * * * * * * * * //
Create time

Create mesh for time = 0

/*---------------------------------------------------------------------------*\
| =========                 |                                                 |
| \\      /  F ield         | OpenFOAM: The Open Source CFD Toolbox           |
|  \\    /   O peration     | Version:  v1912                                 |
|   \\  /    A nd           | Website:  www.openfoam.com                      |
|    \\/     M anipulation  |                                                 |
\*---------------------------------------------------------------------------*/
Build  : _f3950763fe-20191219 OPENFOAM=1912
Arch   : "LSB;label=32;scalar=64"
Exec   : rhoPimpleAPIO_METRICS -parallel
Date   : Oct 30 2020
Time   : 03:09:22
Host   : r16c1t1n1
PID    : 168156
I/O    : uncollated
Case   : /lustre/cray/ws9/2/ws/hpcmcast-ashee2/HAWK/apio_256M/8192
nProcs : 8192
Hosts  :
(
    (r16c1t1n1 128)
    (r16c1t1n2 128)
    (r16c1t1n3 128)
    (r16c1t1n4 128)
    (r16c1t2n1 128)
    (r16c1t2n2 128)
    (r16c1t2n3 128)
    (r16c1t2n4 128)
    (r16c1t3n1 128)
    (r16c1t3n2 128)
    (r16c1t3n3 128)
    (r16c1t3n4 128)
    (r16c1t4n1 128)
    (r16c1t4n2 128)
    (r16c1t4n3 128)
    (r16c1t4n4 128)
    (r16c1t5n1 128)
    (r16c1t5n2 128)
    (r16c1t5n3 128)
    (r16c1t5n4 128)
    (r16c1t6n1 128)
    (r16c1t6n2 128)
    (r16c1t6n3 128)
    (r16c1t6n4 128)
    (r16c1t7n1 128)
    (r16c1t7n2 128)
    (r16c1t7n3 128)
    (r16c1t7n4 128)
    (r16c1t8n1 128)
    (r16c1t8n2 128)
    (r16c1t8n3 128)
    (r16c1t8n4 128)
    (r16c2t1n1 128)
    (r16c2t1n2 128)
    (r16c2t1n3 128)
    (r16c2t1n4 128)
    (r16c2t2n1 128)
    (r16c2t2n2 128)
    (r16c2t2n3 128)
    (r16c2t2n4 128)
    (r16c2t3n1 128)
    (r16c2t3n2 128)
    (r16c2t3n3 128)
    (r16c2t3n4 128)
    (r16c2t4n1 128)
    (r16c2t4n2 128)
    (r16c2t4n3 128)
    (r16c2t4n4 128)
    (r16c2t5n1 128)
    (r16c2t5n2 128)
    (r16c2t5n3 128)
    (r16c2t5n4 128)
    (r16c2t6n1 128)
    (r16c2t6n2 128)
    (r16c2t6n4 128)
    (r16c2t7n1 128)
    (r16c2t7n2 128)
    (r16c2t7n4 128)
    (r16c2t8n1 128)
    (r16c2t8n2 128)
    (r16c2t8n3 128)
    (r16c2t8n4 128)
    (r16c2t6n3 128)
    (r16c2t7n3 128)
)
Pstream initialized with:
    floatTransfer      : 0
    nProcsSimpleSum    : 0
    commsType          : nonBlocking
    polling iterations : 0
trapFpe: Floating point exception trapping enabled (FOAM_SIGFPE).
fileModificationChecking : Monitoring run-time modified files using timeStampMaster (fileModificationSkew 10)
allowSystemOperations : Allowing user-supplied system call operations

// * * * * * * * * * * * * * * * * * * * * * * * * * * * * * * * * * * * * * //
Create time

Create mesh for time = 0

/*---------------------------------------------------------------------------*\
| =========                 |                                                 |
| \\      /  F ield         | OpenFOAM: The Open Source CFD Toolbox           |
|  \\    /   O peration     | Version:  v1912                                 |
|   \\  /    A nd           | Website:  www.openfoam.com                      |
|    \\/     M anipulation  |                                                 |
\*---------------------------------------------------------------------------*/
Build  : _f3950763fe-20191219 OPENFOAM=1912
Arch   : "LSB;label=32;scalar=64"
Exec   : rhoPimpleAPIO_METRICS -parallel
Date   : Oct 30 2020
Time   : 03:10:02
Host   : r16c1t1n1
PID    : 170746
I/O    : uncollated
Case   : /lustre/cray/ws9/2/ws/hpcmcast-ashee2/HAWK/apio_256M/8192
nProcs : 8192
Hosts  :
(
    (r16c1t1n1 128)
    (r16c1t1n2 128)
    (r16c1t1n3 128)
    (r16c1t1n4 128)
    (r16c1t2n1 128)
    (r16c1t2n2 128)
    (r16c1t2n3 128)
    (r16c1t2n4 128)
    (r16c1t3n1 128)
    (r16c1t3n2 128)
    (r16c1t3n3 128)
    (r16c1t3n4 128)
    (r16c1t4n1 128)
    (r16c1t4n2 128)
    (r16c1t4n3 128)
    (r16c1t4n4 128)
    (r16c1t5n1 128)
    (r16c1t5n2 128)
    (r16c1t5n3 128)
    (r16c1t5n4 128)
    (r16c1t6n1 128)
    (r16c1t6n2 128)
    (r16c1t6n3 128)
    (r16c1t6n4 128)
    (r16c1t7n1 128)
    (r16c1t7n2 128)
    (r16c1t7n3 128)
    (r16c1t7n4 128)
    (r16c1t8n1 128)
    (r16c1t8n2 128)
    (r16c1t8n3 128)
    (r16c1t8n4 128)
    (r16c2t1n1 128)
    (r16c2t1n2 128)
    (r16c2t1n3 128)
    (r16c2t1n4 128)
    (r16c2t2n1 128)
    (r16c2t2n2 128)
    (r16c2t2n3 128)
    (r16c2t2n4 128)
    (r16c2t3n1 128)
    (r16c2t3n2 128)
    (r16c2t3n3 128)
    (r16c2t3n4 128)
    (r16c2t4n1 128)
    (r16c2t4n2 128)
    (r16c2t4n3 128)
    (r16c2t4n4 128)
    (r16c2t5n1 128)
    (r16c2t5n2 128)
    (r16c2t5n3 128)
    (r16c2t5n4 128)
    (r16c2t6n1 128)
    (r16c2t6n2 128)
    (r16c2t6n4 128)
    (r16c2t7n1 128)
    (r16c2t7n2 128)
    (r16c2t7n4 128)
    (r16c2t8n1 128)
    (r16c2t8n2 128)
    (r16c2t8n3 128)
    (r16c2t8n4 128)
    (r16c2t6n3 128)
    (r16c2t7n3 128)
)
Pstream initialized with:
    floatTransfer      : 0
    nProcsSimpleSum    : 0
    commsType          : nonBlocking
    polling iterations : 0
trapFpe: Floating point exception trapping enabled (FOAM_SIGFPE).
fileModificationChecking : Monitoring run-time modified files using timeStampMaster (fileModificationSkew 10)
allowSystemOperations : Allowing user-supplied system call operations

// * * * * * * * * * * * * * * * * * * * * * * * * * * * * * * * * * * * * * //
Create time

Create mesh for time = 0

/*---------------------------------------------------------------------------*\
| =========                 |                                                 |
| \\      /  F ield         | OpenFOAM: The Open Source CFD Toolbox           |
|  \\    /   O peration     | Version:  v1912                                 |
|   \\  /    A nd           | Website:  www.openfoam.com                      |
|    \\/     M anipulation  |                                                 |
\*---------------------------------------------------------------------------*/
Build  : _f3950763fe-20191219 OPENFOAM=1912
Arch   : "LSB;label=32;scalar=64"
Exec   : rhoPimpleAPIO_METRICS -parallel
Date   : Oct 30 2020
Time   : 03:10:44
Host   : r16c1t1n1
PID    : 173337
I/O    : uncollated
Case   : /lustre/cray/ws9/2/ws/hpcmcast-ashee2/HAWK/apio_256M/8192
nProcs : 8192
Hosts  :
(
    (r16c1t1n1 128)
    (r16c1t1n2 128)
    (r16c1t1n3 128)
    (r16c1t1n4 128)
    (r16c1t2n1 128)
    (r16c1t2n2 128)
    (r16c1t2n3 128)
    (r16c1t2n4 128)
    (r16c1t3n1 128)
    (r16c1t3n2 128)
    (r16c1t3n3 128)
    (r16c1t3n4 128)
    (r16c1t4n1 128)
    (r16c1t4n2 128)
    (r16c1t4n3 128)
    (r16c1t4n4 128)
    (r16c1t5n1 128)
    (r16c1t5n2 128)
    (r16c1t5n3 128)
    (r16c1t5n4 128)
    (r16c1t6n1 128)
    (r16c1t6n2 128)
    (r16c1t6n3 128)
    (r16c1t6n4 128)
    (r16c1t7n1 128)
    (r16c1t7n2 128)
    (r16c1t7n3 128)
    (r16c1t7n4 128)
    (r16c1t8n1 128)
    (r16c1t8n2 128)
    (r16c1t8n3 128)
    (r16c1t8n4 128)
    (r16c2t1n1 128)
    (r16c2t1n2 128)
    (r16c2t1n3 128)
    (r16c2t1n4 128)
    (r16c2t2n1 128)
    (r16c2t2n2 128)
    (r16c2t2n3 128)
    (r16c2t2n4 128)
    (r16c2t3n1 128)
    (r16c2t3n2 128)
    (r16c2t3n3 128)
    (r16c2t3n4 128)
    (r16c2t4n1 128)
    (r16c2t4n2 128)
    (r16c2t4n3 128)
    (r16c2t4n4 128)
    (r16c2t5n1 128)
    (r16c2t5n2 128)
    (r16c2t5n3 128)
    (r16c2t5n4 128)
    (r16c2t6n1 128)
    (r16c2t6n2 128)
    (r16c2t6n4 128)
    (r16c2t7n1 128)
    (r16c2t7n2 128)
    (r16c2t7n4 128)
    (r16c2t8n1 128)
    (r16c2t8n2 128)
    (r16c2t8n3 128)
    (r16c2t8n4 128)
    (r16c2t6n3 128)
    (r16c2t7n3 128)
)
Pstream initialized with:
    floatTransfer      : 0
    nProcsSimpleSum    : 0
    commsType          : nonBlocking
    polling iterations : 0
trapFpe: Floating point exception trapping enabled (FOAM_SIGFPE).
fileModificationChecking : Monitoring run-time modified files using timeStampMaster (fileModificationSkew 10)
allowSystemOperations : Allowing user-supplied system call operations

// * * * * * * * * * * * * * * * * * * * * * * * * * * * * * * * * * * * * * //
Create time

Create mesh for time = 0

/*---------------------------------------------------------------------------*\
| =========                 |                                                 |
| \\      /  F ield         | OpenFOAM: The Open Source CFD Toolbox           |
|  \\    /   O peration     | Version:  v1912                                 |
|   \\  /    A nd           | Website:  www.openfoam.com                      |
|    \\/     M anipulation  |                                                 |
\*---------------------------------------------------------------------------*/
Build  : _f3950763fe-20191219 OPENFOAM=1912
Arch   : "LSB;label=32;scalar=64"
Exec   : rhoPimpleAPIO_METRICS -parallel
Date   : Oct 30 2020
Time   : 03:11:25
Host   : r16c1t1n1
PID    : 175922
I/O    : uncollated
Case   : /lustre/cray/ws9/2/ws/hpcmcast-ashee2/HAWK/apio_256M/8192
nProcs : 8192
Hosts  :
(
    (r16c1t1n1 128)
    (r16c1t1n2 128)
    (r16c1t1n3 128)
    (r16c1t1n4 128)
    (r16c1t2n1 128)
    (r16c1t2n2 128)
    (r16c1t2n3 128)
    (r16c1t2n4 128)
    (r16c1t3n1 128)
    (r16c1t3n2 128)
    (r16c1t3n3 128)
    (r16c1t3n4 128)
    (r16c1t4n1 128)
    (r16c1t4n2 128)
    (r16c1t4n3 128)
    (r16c1t4n4 128)
    (r16c1t5n1 128)
    (r16c1t5n2 128)
    (r16c1t5n3 128)
    (r16c1t5n4 128)
    (r16c1t6n1 128)
    (r16c1t6n2 128)
    (r16c1t6n3 128)
    (r16c1t6n4 128)
    (r16c1t7n1 128)
    (r16c1t7n2 128)
    (r16c1t7n3 128)
    (r16c1t7n4 128)
    (r16c1t8n1 128)
    (r16c1t8n2 128)
    (r16c1t8n3 128)
    (r16c1t8n4 128)
    (r16c2t1n1 128)
    (r16c2t1n2 128)
    (r16c2t1n3 128)
    (r16c2t1n4 128)
    (r16c2t2n1 128)
    (r16c2t2n2 128)
    (r16c2t2n3 128)
    (r16c2t2n4 128)
    (r16c2t3n1 128)
    (r16c2t3n2 128)
    (r16c2t3n3 128)
    (r16c2t3n4 128)
    (r16c2t4n1 128)
    (r16c2t4n2 128)
    (r16c2t4n3 128)
    (r16c2t4n4 128)
    (r16c2t5n1 128)
    (r16c2t5n2 128)
    (r16c2t5n3 128)
    (r16c2t5n4 128)
    (r16c2t6n1 128)
    (r16c2t6n2 128)
    (r16c2t6n4 128)
    (r16c2t7n1 128)
    (r16c2t7n2 128)
    (r16c2t7n4 128)
    (r16c2t8n1 128)
    (r16c2t8n2 128)
    (r16c2t8n3 128)
    (r16c2t8n4 128)
    (r16c2t6n3 128)
    (r16c2t7n3 128)
)
Pstream initialized with:
    floatTransfer      : 0
    nProcsSimpleSum    : 0
    commsType          : nonBlocking
    polling iterations : 0
trapFpe: Floating point exception trapping enabled (FOAM_SIGFPE).
fileModificationChecking : Monitoring run-time modified files using timeStampMaster (fileModificationSkew 10)
allowSystemOperations : Allowing user-supplied system call operations

// * * * * * * * * * * * * * * * * * * * * * * * * * * * * * * * * * * * * * //
Create time

Create mesh for time = 0

/*---------------------------------------------------------------------------*\
| =========                 |                                                 |
| \\      /  F ield         | OpenFOAM: The Open Source CFD Toolbox           |
|  \\    /   O peration     | Version:  v1912                                 |
|   \\  /    A nd           | Website:  www.openfoam.com                      |
|    \\/     M anipulation  |                                                 |
\*---------------------------------------------------------------------------*/
Build  : _f3950763fe-20191219 OPENFOAM=1912
Arch   : "LSB;label=32;scalar=64"
Exec   : rhoPimpleAPIO_METRICS -parallel
Date   : Oct 30 2020
Time   : 03:12:05
Host   : r16c1t1n1
PID    : 178511
I/O    : uncollated
Case   : /lustre/cray/ws9/2/ws/hpcmcast-ashee2/HAWK/apio_256M/8192
nProcs : 8192
Hosts  :
(
    (r16c1t1n1 128)
    (r16c1t1n2 128)
    (r16c1t1n3 128)
    (r16c1t1n4 128)
    (r16c1t2n1 128)
    (r16c1t2n2 128)
    (r16c1t2n3 128)
    (r16c1t2n4 128)
    (r16c1t3n1 128)
    (r16c1t3n2 128)
    (r16c1t3n3 128)
    (r16c1t3n4 128)
    (r16c1t4n1 128)
    (r16c1t4n2 128)
    (r16c1t4n3 128)
    (r16c1t4n4 128)
    (r16c1t5n1 128)
    (r16c1t5n2 128)
    (r16c1t5n3 128)
    (r16c1t5n4 128)
    (r16c1t6n1 128)
    (r16c1t6n2 128)
    (r16c1t6n3 128)
    (r16c1t6n4 128)
    (r16c1t7n1 128)
    (r16c1t7n2 128)
    (r16c1t7n3 128)
    (r16c1t7n4 128)
    (r16c1t8n1 128)
    (r16c1t8n2 128)
    (r16c1t8n3 128)
    (r16c1t8n4 128)
    (r16c2t1n1 128)
    (r16c2t1n2 128)
    (r16c2t1n3 128)
    (r16c2t1n4 128)
    (r16c2t2n1 128)
    (r16c2t2n2 128)
    (r16c2t2n3 128)
    (r16c2t2n4 128)
    (r16c2t3n1 128)
    (r16c2t3n2 128)
    (r16c2t3n3 128)
    (r16c2t3n4 128)
    (r16c2t4n1 128)
    (r16c2t4n2 128)
    (r16c2t4n3 128)
    (r16c2t4n4 128)
    (r16c2t5n1 128)
    (r16c2t5n2 128)
    (r16c2t5n3 128)
    (r16c2t5n4 128)
    (r16c2t6n1 128)
    (r16c2t6n2 128)
    (r16c2t6n4 128)
    (r16c2t7n1 128)
    (r16c2t7n2 128)
    (r16c2t7n4 128)
    (r16c2t8n1 128)
    (r16c2t8n2 128)
    (r16c2t8n3 128)
    (r16c2t8n4 128)
    (r16c2t6n3 128)
    (r16c2t7n3 128)
)
Pstream initialized with:
    floatTransfer      : 0
    nProcsSimpleSum    : 0
    commsType          : nonBlocking
    polling iterations : 0
trapFpe: Floating point exception trapping enabled (FOAM_SIGFPE).
fileModificationChecking : Monitoring run-time modified files using timeStampMaster (fileModificationSkew 10)
allowSystemOperations : Allowing user-supplied system call operations

// * * * * * * * * * * * * * * * * * * * * * * * * * * * * * * * * * * * * * //
Create time

Create mesh for time = 0

/*---------------------------------------------------------------------------*\
| =========                 |                                                 |
| \\      /  F ield         | OpenFOAM: The Open Source CFD Toolbox           |
|  \\    /   O peration     | Version:  v1912                                 |
|   \\  /    A nd           | Website:  www.openfoam.com                      |
|    \\/     M anipulation  |                                                 |
\*---------------------------------------------------------------------------*/
Build  : _f3950763fe-20191219 OPENFOAM=1912
Arch   : "LSB;label=32;scalar=64"
Exec   : rhoPimpleAPIO_METRICS -parallel
Date   : Oct 30 2020
Time   : 03:12:43
Host   : r16c1t1n1
PID    : 181096
I/O    : uncollated
Case   : /lustre/cray/ws9/2/ws/hpcmcast-ashee2/HAWK/apio_256M/8192
nProcs : 8192
Hosts  :
(
    (r16c1t1n1 128)
    (r16c1t1n2 128)
    (r16c1t1n3 128)
    (r16c1t1n4 128)
    (r16c1t2n1 128)
    (r16c1t2n2 128)
    (r16c1t2n3 128)
    (r16c1t2n4 128)
    (r16c1t3n1 128)
    (r16c1t3n2 128)
    (r16c1t3n3 128)
    (r16c1t3n4 128)
    (r16c1t4n1 128)
    (r16c1t4n2 128)
    (r16c1t4n3 128)
    (r16c1t4n4 128)
    (r16c1t5n1 128)
    (r16c1t5n2 128)
    (r16c1t5n3 128)
    (r16c1t5n4 128)
    (r16c1t6n1 128)
    (r16c1t6n2 128)
    (r16c1t6n3 128)
    (r16c1t6n4 128)
    (r16c1t7n1 128)
    (r16c1t7n2 128)
    (r16c1t7n3 128)
    (r16c1t7n4 128)
    (r16c1t8n1 128)
    (r16c1t8n2 128)
    (r16c1t8n3 128)
    (r16c1t8n4 128)
    (r16c2t1n1 128)
    (r16c2t1n2 128)
    (r16c2t1n3 128)
    (r16c2t1n4 128)
    (r16c2t2n1 128)
    (r16c2t2n2 128)
    (r16c2t2n3 128)
    (r16c2t2n4 128)
    (r16c2t3n1 128)
    (r16c2t3n2 128)
    (r16c2t3n3 128)
    (r16c2t3n4 128)
    (r16c2t4n1 128)
    (r16c2t4n2 128)
    (r16c2t4n3 128)
    (r16c2t4n4 128)
    (r16c2t5n1 128)
    (r16c2t5n2 128)
    (r16c2t5n3 128)
    (r16c2t5n4 128)
    (r16c2t6n1 128)
    (r16c2t6n2 128)
    (r16c2t6n4 128)
    (r16c2t7n1 128)
    (r16c2t7n2 128)
    (r16c2t7n4 128)
    (r16c2t8n1 128)
    (r16c2t8n2 128)
    (r16c2t8n3 128)
    (r16c2t8n4 128)
    (r16c2t6n3 128)
    (r16c2t7n3 128)
)
Pstream initialized with:
    floatTransfer      : 0
    nProcsSimpleSum    : 0
    commsType          : nonBlocking
    polling iterations : 0
trapFpe: Floating point exception trapping enabled (FOAM_SIGFPE).
fileModificationChecking : Monitoring run-time modified files using timeStampMaster (fileModificationSkew 10)
allowSystemOperations : Allowing user-supplied system call operations

// * * * * * * * * * * * * * * * * * * * * * * * * * * * * * * * * * * * * * //
Create time

Create mesh for time = 0

/*---------------------------------------------------------------------------*\
| =========                 |                                                 |
| \\      /  F ield         | OpenFOAM: The Open Source CFD Toolbox           |
|  \\    /   O peration     | Version:  v1912                                 |
|   \\  /    A nd           | Website:  www.openfoam.com                      |
|    \\/     M anipulation  |                                                 |
\*---------------------------------------------------------------------------*/
Build  : _f3950763fe-20191219 OPENFOAM=1912
Arch   : "LSB;label=32;scalar=64"
Exec   : rhoPimpleAPIO_METRICS -parallel
Date   : Oct 30 2020
Time   : 03:13:26
Host   : r16c1t1n1
PID    : 183684
I/O    : uncollated
Case   : /lustre/cray/ws9/2/ws/hpcmcast-ashee2/HAWK/apio_256M/8192
nProcs : 8192
Hosts  :
(
    (r16c1t1n1 128)
    (r16c1t1n2 128)
    (r16c1t1n3 128)
    (r16c1t1n4 128)
    (r16c1t2n1 128)
    (r16c1t2n2 128)
    (r16c1t2n3 128)
    (r16c1t2n4 128)
    (r16c1t3n1 128)
    (r16c1t3n2 128)
    (r16c1t3n3 128)
    (r16c1t3n4 128)
    (r16c1t4n1 128)
    (r16c1t4n2 128)
    (r16c1t4n3 128)
    (r16c1t4n4 128)
    (r16c1t5n1 128)
    (r16c1t5n2 128)
    (r16c1t5n3 128)
    (r16c1t5n4 128)
    (r16c1t6n1 128)
    (r16c1t6n2 128)
    (r16c1t6n3 128)
    (r16c1t6n4 128)
    (r16c1t7n1 128)
    (r16c1t7n2 128)
    (r16c1t7n3 128)
    (r16c1t7n4 128)
    (r16c1t8n1 128)
    (r16c1t8n2 128)
    (r16c1t8n3 128)
    (r16c1t8n4 128)
    (r16c2t1n1 128)
    (r16c2t1n2 128)
    (r16c2t1n3 128)
    (r16c2t1n4 128)
    (r16c2t2n1 128)
    (r16c2t2n2 128)
    (r16c2t2n3 128)
    (r16c2t2n4 128)
    (r16c2t3n1 128)
    (r16c2t3n2 128)
    (r16c2t3n3 128)
    (r16c2t3n4 128)
    (r16c2t4n1 128)
    (r16c2t4n2 128)
    (r16c2t4n3 128)
    (r16c2t4n4 128)
    (r16c2t5n1 128)
    (r16c2t5n2 128)
    (r16c2t5n3 128)
    (r16c2t5n4 128)
    (r16c2t6n1 128)
    (r16c2t6n2 128)
    (r16c2t6n4 128)
    (r16c2t7n1 128)
    (r16c2t7n2 128)
    (r16c2t7n4 128)
    (r16c2t8n1 128)
    (r16c2t8n2 128)
    (r16c2t8n3 128)
    (r16c2t8n4 128)
    (r16c2t6n3 128)
    (r16c2t7n3 128)
)
Pstream initialized with:
    floatTransfer      : 0
    nProcsSimpleSum    : 0
    commsType          : nonBlocking
    polling iterations : 0
trapFpe: Floating point exception trapping enabled (FOAM_SIGFPE).
fileModificationChecking : Monitoring run-time modified files using timeStampMaster (fileModificationSkew 10)
allowSystemOperations : Allowing user-supplied system call operations

// * * * * * * * * * * * * * * * * * * * * * * * * * * * * * * * * * * * * * //
Create time

Create mesh for time = 0

/*---------------------------------------------------------------------------*\
| =========                 |                                                 |
| \\      /  F ield         | OpenFOAM: The Open Source CFD Toolbox           |
|  \\    /   O peration     | Version:  v1912                                 |
|   \\  /    A nd           | Website:  www.openfoam.com                      |
|    \\/     M anipulation  |                                                 |
\*---------------------------------------------------------------------------*/
Build  : _f3950763fe-20191219 OPENFOAM=1912
Arch   : "LSB;label=32;scalar=64"
Exec   : rhoPimpleAPIO_METRICS -parallel
Date   : Oct 30 2020
Time   : 03:14:07
Host   : r16c1t1n1
PID    : 186351
I/O    : uncollated
Case   : /lustre/cray/ws9/2/ws/hpcmcast-ashee2/HAWK/apio_256M/8192
nProcs : 8192
Hosts  :
(
    (r16c1t1n1 128)
    (r16c1t1n2 128)
    (r16c1t1n3 128)
    (r16c1t1n4 128)
    (r16c1t2n1 128)
    (r16c1t2n2 128)
    (r16c1t2n3 128)
    (r16c1t2n4 128)
    (r16c1t3n1 128)
    (r16c1t3n2 128)
    (r16c1t3n3 128)
    (r16c1t3n4 128)
    (r16c1t4n1 128)
    (r16c1t4n2 128)
    (r16c1t4n3 128)
    (r16c1t4n4 128)
    (r16c1t5n1 128)
    (r16c1t5n2 128)
    (r16c1t5n3 128)
    (r16c1t5n4 128)
    (r16c1t6n1 128)
    (r16c1t6n2 128)
    (r16c1t6n3 128)
    (r16c1t6n4 128)
    (r16c1t7n1 128)
    (r16c1t7n2 128)
    (r16c1t7n3 128)
    (r16c1t7n4 128)
    (r16c1t8n1 128)
    (r16c1t8n2 128)
    (r16c1t8n3 128)
    (r16c1t8n4 128)
    (r16c2t1n1 128)
    (r16c2t1n2 128)
    (r16c2t1n3 128)
    (r16c2t1n4 128)
    (r16c2t2n1 128)
    (r16c2t2n2 128)
    (r16c2t2n3 128)
    (r16c2t2n4 128)
    (r16c2t3n1 128)
    (r16c2t3n2 128)
    (r16c2t3n3 128)
    (r16c2t3n4 128)
    (r16c2t4n1 128)
    (r16c2t4n2 128)
    (r16c2t4n3 128)
    (r16c2t4n4 128)
    (r16c2t5n1 128)
    (r16c2t5n2 128)
    (r16c2t5n3 128)
    (r16c2t5n4 128)
    (r16c2t6n1 128)
    (r16c2t6n2 128)
    (r16c2t6n4 128)
    (r16c2t7n1 128)
    (r16c2t7n2 128)
    (r16c2t7n4 128)
    (r16c2t8n1 128)
    (r16c2t8n2 128)
    (r16c2t8n3 128)
    (r16c2t8n4 128)
    (r16c2t6n3 128)
    (r16c2t7n3 128)
)
Pstream initialized with:
    floatTransfer      : 0
    nProcsSimpleSum    : 0
    commsType          : nonBlocking
    polling iterations : 0
trapFpe: Floating point exception trapping enabled (FOAM_SIGFPE).
fileModificationChecking : Monitoring run-time modified files using timeStampMaster (fileModificationSkew 10)
allowSystemOperations : Allowing user-supplied system call operations

// * * * * * * * * * * * * * * * * * * * * * * * * * * * * * * * * * * * * * //
Create time

Create mesh for time = 0

/*---------------------------------------------------------------------------*\
| =========                 |                                                 |
| \\      /  F ield         | OpenFOAM: The Open Source CFD Toolbox           |
|  \\    /   O peration     | Version:  v1912                                 |
|   \\  /    A nd           | Website:  www.openfoam.com                      |
|    \\/     M anipulation  |                                                 |
\*---------------------------------------------------------------------------*/
Build  : _f3950763fe-20191219 OPENFOAM=1912
Arch   : "LSB;label=32;scalar=64"
Exec   : rhoPimpleAPIO_METRICS -parallel
Date   : Oct 30 2020
Time   : 03:14:50
Host   : r16c1t1n1
PID    : 188932
I/O    : uncollated
Case   : /lustre/cray/ws9/2/ws/hpcmcast-ashee2/HAWK/apio_256M/8192
nProcs : 8192
Hosts  :
(
    (r16c1t1n1 128)
    (r16c1t1n2 128)
    (r16c1t1n3 128)
    (r16c1t1n4 128)
    (r16c1t2n1 128)
    (r16c1t2n2 128)
    (r16c1t2n3 128)
    (r16c1t2n4 128)
    (r16c1t3n1 128)
    (r16c1t3n2 128)
    (r16c1t3n3 128)
    (r16c1t3n4 128)
    (r16c1t4n1 128)
    (r16c1t4n2 128)
    (r16c1t4n3 128)
    (r16c1t4n4 128)
    (r16c1t5n1 128)
    (r16c1t5n2 128)
    (r16c1t5n3 128)
    (r16c1t5n4 128)
    (r16c1t6n1 128)
    (r16c1t6n2 128)
    (r16c1t6n3 128)
    (r16c1t6n4 128)
    (r16c1t7n1 128)
    (r16c1t7n2 128)
    (r16c1t7n3 128)
    (r16c1t7n4 128)
    (r16c1t8n1 128)
    (r16c1t8n2 128)
    (r16c1t8n3 128)
    (r16c1t8n4 128)
    (r16c2t1n1 128)
    (r16c2t1n2 128)
    (r16c2t1n3 128)
    (r16c2t1n4 128)
    (r16c2t2n1 128)
    (r16c2t2n2 128)
    (r16c2t2n3 128)
    (r16c2t2n4 128)
    (r16c2t3n1 128)
    (r16c2t3n2 128)
    (r16c2t3n3 128)
    (r16c2t3n4 128)
    (r16c2t4n1 128)
    (r16c2t4n2 128)
    (r16c2t4n3 128)
    (r16c2t4n4 128)
    (r16c2t5n1 128)
    (r16c2t5n2 128)
    (r16c2t5n3 128)
    (r16c2t5n4 128)
    (r16c2t6n1 128)
    (r16c2t6n2 128)
    (r16c2t6n4 128)
    (r16c2t7n1 128)
    (r16c2t7n2 128)
    (r16c2t7n4 128)
    (r16c2t8n1 128)
    (r16c2t8n2 128)
    (r16c2t8n3 128)
    (r16c2t8n4 128)
    (r16c2t6n3 128)
    (r16c2t7n3 128)
)
Pstream initialized with:
    floatTransfer      : 0
    nProcsSimpleSum    : 0
    commsType          : nonBlocking
    polling iterations : 0
trapFpe: Floating point exception trapping enabled (FOAM_SIGFPE).
fileModificationChecking : Monitoring run-time modified files using timeStampMaster (fileModificationSkew 10)
allowSystemOperations : Allowing user-supplied system call operations

// * * * * * * * * * * * * * * * * * * * * * * * * * * * * * * * * * * * * * //
Create time

Create mesh for time = 0

/*---------------------------------------------------------------------------*\
| =========                 |                                                 |
| \\      /  F ield         | OpenFOAM: The Open Source CFD Toolbox           |
|  \\    /   O peration     | Version:  v1912                                 |
|   \\  /    A nd           | Website:  www.openfoam.com                      |
|    \\/     M anipulation  |                                                 |
\*---------------------------------------------------------------------------*/
Build  : _f3950763fe-20191219 OPENFOAM=1912
Arch   : "LSB;label=32;scalar=64"
Exec   : rhoPimpleAPIO_METRICS -parallel
Date   : Oct 30 2020
Time   : 03:15:30
Host   : r16c1t1n1
PID    : 191516
I/O    : uncollated
Case   : /lustre/cray/ws9/2/ws/hpcmcast-ashee2/HAWK/apio_256M/8192
nProcs : 8192
Hosts  :
(
    (r16c1t1n1 128)
    (r16c1t1n2 128)
    (r16c1t1n3 128)
    (r16c1t1n4 128)
    (r16c1t2n1 128)
    (r16c1t2n2 128)
    (r16c1t2n3 128)
    (r16c1t2n4 128)
    (r16c1t3n1 128)
    (r16c1t3n2 128)
    (r16c1t3n3 128)
    (r16c1t3n4 128)
    (r16c1t4n1 128)
    (r16c1t4n2 128)
    (r16c1t4n3 128)
    (r16c1t4n4 128)
    (r16c1t5n1 128)
    (r16c1t5n2 128)
    (r16c1t5n3 128)
    (r16c1t5n4 128)
    (r16c1t6n1 128)
    (r16c1t6n2 128)
    (r16c1t6n3 128)
    (r16c1t6n4 128)
    (r16c1t7n1 128)
    (r16c1t7n2 128)
    (r16c1t7n3 128)
    (r16c1t7n4 128)
    (r16c1t8n1 128)
    (r16c1t8n2 128)
    (r16c1t8n3 128)
    (r16c1t8n4 128)
    (r16c2t1n1 128)
    (r16c2t1n2 128)
    (r16c2t1n3 128)
    (r16c2t1n4 128)
    (r16c2t2n1 128)
    (r16c2t2n2 128)
    (r16c2t2n3 128)
    (r16c2t2n4 128)
    (r16c2t3n1 128)
    (r16c2t3n2 128)
    (r16c2t3n3 128)
    (r16c2t3n4 128)
    (r16c2t4n1 128)
    (r16c2t4n2 128)
    (r16c2t4n3 128)
    (r16c2t4n4 128)
    (r16c2t5n1 128)
    (r16c2t5n2 128)
    (r16c2t5n3 128)
    (r16c2t5n4 128)
    (r16c2t6n1 128)
    (r16c2t6n2 128)
    (r16c2t6n4 128)
    (r16c2t7n1 128)
    (r16c2t7n2 128)
    (r16c2t7n4 128)
    (r16c2t8n1 128)
    (r16c2t8n2 128)
    (r16c2t8n3 128)
    (r16c2t8n4 128)
    (r16c2t6n3 128)
    (r16c2t7n3 128)
)
Pstream initialized with:
    floatTransfer      : 0
    nProcsSimpleSum    : 0
    commsType          : nonBlocking
    polling iterations : 0
trapFpe: Floating point exception trapping enabled (FOAM_SIGFPE).
fileModificationChecking : Monitoring run-time modified files using timeStampMaster (fileModificationSkew 10)
allowSystemOperations : Allowing user-supplied system call operations

// * * * * * * * * * * * * * * * * * * * * * * * * * * * * * * * * * * * * * //
Create time

Create mesh for time = 0

/*---------------------------------------------------------------------------*\
| =========                 |                                                 |
| \\      /  F ield         | OpenFOAM: The Open Source CFD Toolbox           |
|  \\    /   O peration     | Version:  v1912                                 |
|   \\  /    A nd           | Website:  www.openfoam.com                      |
|    \\/     M anipulation  |                                                 |
\*---------------------------------------------------------------------------*/
Build  : _f3950763fe-20191219 OPENFOAM=1912
Arch   : "LSB;label=32;scalar=64"
Exec   : rhoPimpleAPIO_METRICS -parallel
Date   : Oct 30 2020
Time   : 03:16:14
Host   : r16c1t1n1
PID    : 194107
I/O    : uncollated
Case   : /lustre/cray/ws9/2/ws/hpcmcast-ashee2/HAWK/apio_256M/8192
nProcs : 8192
Hosts  :
(
    (r16c1t1n1 128)
    (r16c1t1n2 128)
    (r16c1t1n3 128)
    (r16c1t1n4 128)
    (r16c1t2n1 128)
    (r16c1t2n2 128)
    (r16c1t2n3 128)
    (r16c1t2n4 128)
    (r16c1t3n1 128)
    (r16c1t3n2 128)
    (r16c1t3n3 128)
    (r16c1t3n4 128)
    (r16c1t4n1 128)
    (r16c1t4n2 128)
    (r16c1t4n3 128)
    (r16c1t4n4 128)
    (r16c1t5n1 128)
    (r16c1t5n2 128)
    (r16c1t5n3 128)
    (r16c1t5n4 128)
    (r16c1t6n1 128)
    (r16c1t6n2 128)
    (r16c1t6n3 128)
    (r16c1t6n4 128)
    (r16c1t7n1 128)
    (r16c1t7n2 128)
    (r16c1t7n3 128)
    (r16c1t7n4 128)
    (r16c1t8n1 128)
    (r16c1t8n2 128)
    (r16c1t8n3 128)
    (r16c1t8n4 128)
    (r16c2t1n1 128)
    (r16c2t1n2 128)
    (r16c2t1n3 128)
    (r16c2t1n4 128)
    (r16c2t2n1 128)
    (r16c2t2n2 128)
    (r16c2t2n3 128)
    (r16c2t2n4 128)
    (r16c2t3n1 128)
    (r16c2t3n2 128)
    (r16c2t3n3 128)
    (r16c2t3n4 128)
    (r16c2t4n1 128)
    (r16c2t4n2 128)
    (r16c2t4n3 128)
    (r16c2t4n4 128)
    (r16c2t5n1 128)
    (r16c2t5n2 128)
    (r16c2t5n3 128)
    (r16c2t5n4 128)
    (r16c2t6n1 128)
    (r16c2t6n2 128)
    (r16c2t6n4 128)
    (r16c2t7n1 128)
    (r16c2t7n2 128)
    (r16c2t7n4 128)
    (r16c2t8n1 128)
    (r16c2t8n2 128)
    (r16c2t8n3 128)
    (r16c2t8n4 128)
    (r16c2t6n3 128)
    (r16c2t7n3 128)
)
Pstream initialized with:
    floatTransfer      : 0
    nProcsSimpleSum    : 0
    commsType          : nonBlocking
    polling iterations : 0
trapFpe: Floating point exception trapping enabled (FOAM_SIGFPE).
fileModificationChecking : Monitoring run-time modified files using timeStampMaster (fileModificationSkew 10)
allowSystemOperations : Allowing user-supplied system call operations

// * * * * * * * * * * * * * * * * * * * * * * * * * * * * * * * * * * * * * //
Create time

Create mesh for time = 0

/*---------------------------------------------------------------------------*\
| =========                 |                                                 |
| \\      /  F ield         | OpenFOAM: The Open Source CFD Toolbox           |
|  \\    /   O peration     | Version:  v1912                                 |
|   \\  /    A nd           | Website:  www.openfoam.com                      |
|    \\/     M anipulation  |                                                 |
\*---------------------------------------------------------------------------*/
Build  : _f3950763fe-20191219 OPENFOAM=1912
Arch   : "LSB;label=32;scalar=64"
Exec   : rhoPimpleAPIO_METRICS -parallel
Date   : Oct 30 2020
Time   : 03:16:55
Host   : r16c1t1n1
PID    : 196697
I/O    : uncollated
Case   : /lustre/cray/ws9/2/ws/hpcmcast-ashee2/HAWK/apio_256M/8192
nProcs : 8192
Hosts  :
(
    (r16c1t1n1 128)
    (r16c1t1n2 128)
    (r16c1t1n3 128)
    (r16c1t1n4 128)
    (r16c1t2n1 128)
    (r16c1t2n2 128)
    (r16c1t2n3 128)
    (r16c1t2n4 128)
    (r16c1t3n1 128)
    (r16c1t3n2 128)
    (r16c1t3n3 128)
    (r16c1t3n4 128)
    (r16c1t4n1 128)
    (r16c1t4n2 128)
    (r16c1t4n3 128)
    (r16c1t4n4 128)
    (r16c1t5n1 128)
    (r16c1t5n2 128)
    (r16c1t5n3 128)
    (r16c1t5n4 128)
    (r16c1t6n1 128)
    (r16c1t6n2 128)
    (r16c1t6n3 128)
    (r16c1t6n4 128)
    (r16c1t7n1 128)
    (r16c1t7n2 128)
    (r16c1t7n3 128)
    (r16c1t7n4 128)
    (r16c1t8n1 128)
    (r16c1t8n2 128)
    (r16c1t8n3 128)
    (r16c1t8n4 128)
    (r16c2t1n1 128)
    (r16c2t1n2 128)
    (r16c2t1n3 128)
    (r16c2t1n4 128)
    (r16c2t2n1 128)
    (r16c2t2n2 128)
    (r16c2t2n3 128)
    (r16c2t2n4 128)
    (r16c2t3n1 128)
    (r16c2t3n2 128)
    (r16c2t3n3 128)
    (r16c2t3n4 128)
    (r16c2t4n1 128)
    (r16c2t4n2 128)
    (r16c2t4n3 128)
    (r16c2t4n4 128)
    (r16c2t5n1 128)
    (r16c2t5n2 128)
    (r16c2t5n3 128)
    (r16c2t5n4 128)
    (r16c2t6n1 128)
    (r16c2t6n2 128)
    (r16c2t6n4 128)
    (r16c2t7n1 128)
    (r16c2t7n2 128)
    (r16c2t7n4 128)
    (r16c2t8n1 128)
    (r16c2t8n2 128)
    (r16c2t8n3 128)
    (r16c2t8n4 128)
    (r16c2t6n3 128)
    (r16c2t7n3 128)
)
Pstream initialized with:
    floatTransfer      : 0
    nProcsSimpleSum    : 0
    commsType          : nonBlocking
    polling iterations : 0
trapFpe: Floating point exception trapping enabled (FOAM_SIGFPE).
fileModificationChecking : Monitoring run-time modified files using timeStampMaster (fileModificationSkew 10)
allowSystemOperations : Allowing user-supplied system call operations

// * * * * * * * * * * * * * * * * * * * * * * * * * * * * * * * * * * * * * //
Create time

Create mesh for time = 0

/*---------------------------------------------------------------------------*\
| =========                 |                                                 |
| \\      /  F ield         | OpenFOAM: The Open Source CFD Toolbox           |
|  \\    /   O peration     | Version:  v1912                                 |
|   \\  /    A nd           | Website:  www.openfoam.com                      |
|    \\/     M anipulation  |                                                 |
\*---------------------------------------------------------------------------*/
Build  : _f3950763fe-20191219 OPENFOAM=1912
Arch   : "LSB;label=32;scalar=64"
Exec   : rhoPimpleAPIO_METRICS -parallel
Date   : Oct 30 2020
Time   : 03:17:34
Host   : r16c1t1n1
PID    : 199280
I/O    : uncollated
Case   : /lustre/cray/ws9/2/ws/hpcmcast-ashee2/HAWK/apio_256M/8192
nProcs : 8192
Hosts  :
(
    (r16c1t1n1 128)
    (r16c1t1n2 128)
    (r16c1t1n3 128)
    (r16c1t1n4 128)
    (r16c1t2n1 128)
    (r16c1t2n2 128)
    (r16c1t2n3 128)
    (r16c1t2n4 128)
    (r16c1t3n1 128)
    (r16c1t3n2 128)
    (r16c1t3n3 128)
    (r16c1t3n4 128)
    (r16c1t4n1 128)
    (r16c1t4n2 128)
    (r16c1t4n3 128)
    (r16c1t4n4 128)
    (r16c1t5n1 128)
    (r16c1t5n2 128)
    (r16c1t5n3 128)
    (r16c1t5n4 128)
    (r16c1t6n1 128)
    (r16c1t6n2 128)
    (r16c1t6n3 128)
    (r16c1t6n4 128)
    (r16c1t7n1 128)
    (r16c1t7n2 128)
    (r16c1t7n3 128)
    (r16c1t7n4 128)
    (r16c1t8n1 128)
    (r16c1t8n2 128)
    (r16c1t8n3 128)
    (r16c1t8n4 128)
    (r16c2t1n1 128)
    (r16c2t1n2 128)
    (r16c2t1n3 128)
    (r16c2t1n4 128)
    (r16c2t2n1 128)
    (r16c2t2n2 128)
    (r16c2t2n3 128)
    (r16c2t2n4 128)
    (r16c2t3n1 128)
    (r16c2t3n2 128)
    (r16c2t3n3 128)
    (r16c2t3n4 128)
    (r16c2t4n1 128)
    (r16c2t4n2 128)
    (r16c2t4n3 128)
    (r16c2t4n4 128)
    (r16c2t5n1 128)
    (r16c2t5n2 128)
    (r16c2t5n3 128)
    (r16c2t5n4 128)
    (r16c2t6n1 128)
    (r16c2t6n2 128)
    (r16c2t6n4 128)
    (r16c2t7n1 128)
    (r16c2t7n2 128)
    (r16c2t7n4 128)
    (r16c2t8n1 128)
    (r16c2t8n2 128)
    (r16c2t8n3 128)
    (r16c2t8n4 128)
    (r16c2t6n3 128)
    (r16c2t7n3 128)
)
Pstream initialized with:
    floatTransfer      : 0
    nProcsSimpleSum    : 0
    commsType          : nonBlocking
    polling iterations : 0
trapFpe: Floating point exception trapping enabled (FOAM_SIGFPE).
fileModificationChecking : Monitoring run-time modified files using timeStampMaster (fileModificationSkew 10)
allowSystemOperations : Allowing user-supplied system call operations

// * * * * * * * * * * * * * * * * * * * * * * * * * * * * * * * * * * * * * //
Create time

Create mesh for time = 0

/*---------------------------------------------------------------------------*\
| =========                 |                                                 |
| \\      /  F ield         | OpenFOAM: The Open Source CFD Toolbox           |
|  \\    /   O peration     | Version:  v1912                                 |
|   \\  /    A nd           | Website:  www.openfoam.com                      |
|    \\/     M anipulation  |                                                 |
\*---------------------------------------------------------------------------*/
Build  : _f3950763fe-20191219 OPENFOAM=1912
Arch   : "LSB;label=32;scalar=64"
Exec   : rhoPimpleAPIO_METRICS -parallel
Date   : Oct 30 2020
Time   : 03:18:14
Host   : r16c1t1n1
PID    : 201869
I/O    : uncollated
Case   : /lustre/cray/ws9/2/ws/hpcmcast-ashee2/HAWK/apio_256M/8192
nProcs : 8192
Hosts  :
(
    (r16c1t1n1 128)
    (r16c1t1n2 128)
    (r16c1t1n3 128)
    (r16c1t1n4 128)
    (r16c1t2n1 128)
    (r16c1t2n2 128)
    (r16c1t2n3 128)
    (r16c1t2n4 128)
    (r16c1t3n1 128)
    (r16c1t3n2 128)
    (r16c1t3n3 128)
    (r16c1t3n4 128)
    (r16c1t4n1 128)
    (r16c1t4n2 128)
    (r16c1t4n3 128)
    (r16c1t4n4 128)
    (r16c1t5n1 128)
    (r16c1t5n2 128)
    (r16c1t5n3 128)
    (r16c1t5n4 128)
    (r16c1t6n1 128)
    (r16c1t6n2 128)
    (r16c1t6n3 128)
    (r16c1t6n4 128)
    (r16c1t7n1 128)
    (r16c1t7n2 128)
    (r16c1t7n3 128)
    (r16c1t7n4 128)
    (r16c1t8n1 128)
    (r16c1t8n2 128)
    (r16c1t8n3 128)
    (r16c1t8n4 128)
    (r16c2t1n1 128)
    (r16c2t1n2 128)
    (r16c2t1n3 128)
    (r16c2t1n4 128)
    (r16c2t2n1 128)
    (r16c2t2n2 128)
    (r16c2t2n3 128)
    (r16c2t2n4 128)
    (r16c2t3n1 128)
    (r16c2t3n2 128)
    (r16c2t3n3 128)
    (r16c2t3n4 128)
    (r16c2t4n1 128)
    (r16c2t4n2 128)
    (r16c2t4n3 128)
    (r16c2t4n4 128)
    (r16c2t5n1 128)
    (r16c2t5n2 128)
    (r16c2t5n3 128)
    (r16c2t5n4 128)
    (r16c2t6n1 128)
    (r16c2t6n2 128)
    (r16c2t6n4 128)
    (r16c2t7n1 128)
    (r16c2t7n2 128)
    (r16c2t7n4 128)
    (r16c2t8n1 128)
    (r16c2t8n2 128)
    (r16c2t8n3 128)
    (r16c2t8n4 128)
    (r16c2t6n3 128)
    (r16c2t7n3 128)
)
Pstream initialized with:
    floatTransfer      : 0
    nProcsSimpleSum    : 0
    commsType          : nonBlocking
    polling iterations : 0
trapFpe: Floating point exception trapping enabled (FOAM_SIGFPE).
fileModificationChecking : Monitoring run-time modified files using timeStampMaster (fileModificationSkew 10)
allowSystemOperations : Allowing user-supplied system call operations

// * * * * * * * * * * * * * * * * * * * * * * * * * * * * * * * * * * * * * //
Create time

Create mesh for time = 0

/*---------------------------------------------------------------------------*\
| =========                 |                                                 |
| \\      /  F ield         | OpenFOAM: The Open Source CFD Toolbox           |
|  \\    /   O peration     | Version:  v1912                                 |
|   \\  /    A nd           | Website:  www.openfoam.com                      |
|    \\/     M anipulation  |                                                 |
\*---------------------------------------------------------------------------*/
Build  : _f3950763fe-20191219 OPENFOAM=1912
Arch   : "LSB;label=32;scalar=64"
Exec   : rhoPimpleAPIO_METRICS -parallel
Date   : Oct 30 2020
Time   : 03:18:57
Host   : r16c1t1n1
PID    : 204532
I/O    : uncollated
Case   : /lustre/cray/ws9/2/ws/hpcmcast-ashee2/HAWK/apio_256M/8192
nProcs : 8192
Hosts  :
(
    (r16c1t1n1 128)
    (r16c1t1n2 128)
    (r16c1t1n3 128)
    (r16c1t1n4 128)
    (r16c1t2n1 128)
    (r16c1t2n2 128)
    (r16c1t2n3 128)
    (r16c1t2n4 128)
    (r16c1t3n1 128)
    (r16c1t3n2 128)
    (r16c1t3n3 128)
    (r16c1t3n4 128)
    (r16c1t4n1 128)
    (r16c1t4n2 128)
    (r16c1t4n3 128)
    (r16c1t4n4 128)
    (r16c1t5n1 128)
    (r16c1t5n2 128)
    (r16c1t5n3 128)
    (r16c1t5n4 128)
    (r16c1t6n1 128)
    (r16c1t6n2 128)
    (r16c1t6n3 128)
    (r16c1t6n4 128)
    (r16c1t7n1 128)
    (r16c1t7n2 128)
    (r16c1t7n3 128)
    (r16c1t7n4 128)
    (r16c1t8n1 128)
    (r16c1t8n2 128)
    (r16c1t8n3 128)
    (r16c1t8n4 128)
    (r16c2t1n1 128)
    (r16c2t1n2 128)
    (r16c2t1n3 128)
    (r16c2t1n4 128)
    (r16c2t2n1 128)
    (r16c2t2n2 128)
    (r16c2t2n3 128)
    (r16c2t2n4 128)
    (r16c2t3n1 128)
    (r16c2t3n2 128)
    (r16c2t3n3 128)
    (r16c2t3n4 128)
    (r16c2t4n1 128)
    (r16c2t4n2 128)
    (r16c2t4n3 128)
    (r16c2t4n4 128)
    (r16c2t5n1 128)
    (r16c2t5n2 128)
    (r16c2t5n3 128)
    (r16c2t5n4 128)
    (r16c2t6n1 128)
    (r16c2t6n2 128)
    (r16c2t6n4 128)
    (r16c2t7n1 128)
    (r16c2t7n2 128)
    (r16c2t7n4 128)
    (r16c2t8n1 128)
    (r16c2t8n2 128)
    (r16c2t8n3 128)
    (r16c2t8n4 128)
    (r16c2t6n3 128)
    (r16c2t7n3 128)
)
Pstream initialized with:
    floatTransfer      : 0
    nProcsSimpleSum    : 0
    commsType          : nonBlocking
    polling iterations : 0
trapFpe: Floating point exception trapping enabled (FOAM_SIGFPE).
fileModificationChecking : Monitoring run-time modified files using timeStampMaster (fileModificationSkew 10)
allowSystemOperations : Allowing user-supplied system call operations

// * * * * * * * * * * * * * * * * * * * * * * * * * * * * * * * * * * * * * //
Create time

Create mesh for time = 0

/*---------------------------------------------------------------------------*\
| =========                 |                                                 |
| \\      /  F ield         | OpenFOAM: The Open Source CFD Toolbox           |
|  \\    /   O peration     | Version:  v1912                                 |
|   \\  /    A nd           | Website:  www.openfoam.com                      |
|    \\/     M anipulation  |                                                 |
\*---------------------------------------------------------------------------*/
Build  : _f3950763fe-20191219 OPENFOAM=1912
Arch   : "LSB;label=32;scalar=64"
Exec   : rhoPimpleAPIO_METRICS -parallel
Date   : Oct 30 2020
Time   : 03:19:40
Host   : r16c1t1n1
PID    : 207121
I/O    : uncollated
Case   : /lustre/cray/ws9/2/ws/hpcmcast-ashee2/HAWK/apio_256M/8192
nProcs : 8192
Hosts  :
(
    (r16c1t1n1 128)
    (r16c1t1n2 128)
    (r16c1t1n3 128)
    (r16c1t1n4 128)
    (r16c1t2n1 128)
    (r16c1t2n2 128)
    (r16c1t2n3 128)
    (r16c1t2n4 128)
    (r16c1t3n1 128)
    (r16c1t3n2 128)
    (r16c1t3n3 128)
    (r16c1t3n4 128)
    (r16c1t4n1 128)
    (r16c1t4n2 128)
    (r16c1t4n3 128)
    (r16c1t4n4 128)
    (r16c1t5n1 128)
    (r16c1t5n2 128)
    (r16c1t5n3 128)
    (r16c1t5n4 128)
    (r16c1t6n1 128)
    (r16c1t6n2 128)
    (r16c1t6n3 128)
    (r16c1t6n4 128)
    (r16c1t7n1 128)
    (r16c1t7n2 128)
    (r16c1t7n3 128)
    (r16c1t7n4 128)
    (r16c1t8n1 128)
    (r16c1t8n2 128)
    (r16c1t8n3 128)
    (r16c1t8n4 128)
    (r16c2t1n1 128)
    (r16c2t1n2 128)
    (r16c2t1n3 128)
    (r16c2t1n4 128)
    (r16c2t2n1 128)
    (r16c2t2n2 128)
    (r16c2t2n3 128)
    (r16c2t2n4 128)
    (r16c2t3n1 128)
    (r16c2t3n2 128)
    (r16c2t3n3 128)
    (r16c2t3n4 128)
    (r16c2t4n1 128)
    (r16c2t4n2 128)
    (r16c2t4n3 128)
    (r16c2t4n4 128)
    (r16c2t5n1 128)
    (r16c2t5n2 128)
    (r16c2t5n3 128)
    (r16c2t5n4 128)
    (r16c2t6n1 128)
    (r16c2t6n2 128)
    (r16c2t6n4 128)
    (r16c2t7n1 128)
    (r16c2t7n2 128)
    (r16c2t7n4 128)
    (r16c2t8n1 128)
    (r16c2t8n2 128)
    (r16c2t8n3 128)
    (r16c2t8n4 128)
    (r16c2t6n3 128)
    (r16c2t7n3 128)
)
Pstream initialized with:
    floatTransfer      : 0
    nProcsSimpleSum    : 0
    commsType          : nonBlocking
    polling iterations : 0
trapFpe: Floating point exception trapping enabled (FOAM_SIGFPE).
fileModificationChecking : Monitoring run-time modified files using timeStampMaster (fileModificationSkew 10)
allowSystemOperations : Allowing user-supplied system call operations

// * * * * * * * * * * * * * * * * * * * * * * * * * * * * * * * * * * * * * //
Create time

Create mesh for time = 0

/*---------------------------------------------------------------------------*\
| =========                 |                                                 |
| \\      /  F ield         | OpenFOAM: The Open Source CFD Toolbox           |
|  \\    /   O peration     | Version:  v1912                                 |
|   \\  /    A nd           | Website:  www.openfoam.com                      |
|    \\/     M anipulation  |                                                 |
\*---------------------------------------------------------------------------*/
Build  : _f3950763fe-20191219 OPENFOAM=1912
Arch   : "LSB;label=32;scalar=64"
Exec   : rhoPimpleAPIO_METRICS -parallel
Date   : Oct 30 2020
Time   : 03:20:19
Host   : r16c1t1n1
PID    : 209712
I/O    : uncollated
Case   : /lustre/cray/ws9/2/ws/hpcmcast-ashee2/HAWK/apio_256M/8192
nProcs : 8192
Hosts  :
(
    (r16c1t1n1 128)
    (r16c1t1n2 128)
    (r16c1t1n3 128)
    (r16c1t1n4 128)
    (r16c1t2n1 128)
    (r16c1t2n2 128)
    (r16c1t2n3 128)
    (r16c1t2n4 128)
    (r16c1t3n1 128)
    (r16c1t3n2 128)
    (r16c1t3n3 128)
    (r16c1t3n4 128)
    (r16c1t4n1 128)
    (r16c1t4n2 128)
    (r16c1t4n3 128)
    (r16c1t4n4 128)
    (r16c1t5n1 128)
    (r16c1t5n2 128)
    (r16c1t5n3 128)
    (r16c1t5n4 128)
    (r16c1t6n1 128)
    (r16c1t6n2 128)
    (r16c1t6n3 128)
    (r16c1t6n4 128)
    (r16c1t7n1 128)
    (r16c1t7n2 128)
    (r16c1t7n3 128)
    (r16c1t7n4 128)
    (r16c1t8n1 128)
    (r16c1t8n2 128)
    (r16c1t8n3 128)
    (r16c1t8n4 128)
    (r16c2t1n1 128)
    (r16c2t1n2 128)
    (r16c2t1n3 128)
    (r16c2t1n4 128)
    (r16c2t2n1 128)
    (r16c2t2n2 128)
    (r16c2t2n3 128)
    (r16c2t2n4 128)
    (r16c2t3n1 128)
    (r16c2t3n2 128)
    (r16c2t3n3 128)
    (r16c2t3n4 128)
    (r16c2t4n1 128)
    (r16c2t4n2 128)
    (r16c2t4n3 128)
    (r16c2t4n4 128)
    (r16c2t5n1 128)
    (r16c2t5n2 128)
    (r16c2t5n3 128)
    (r16c2t5n4 128)
    (r16c2t6n1 128)
    (r16c2t6n2 128)
    (r16c2t6n4 128)
    (r16c2t7n1 128)
    (r16c2t7n2 128)
    (r16c2t7n4 128)
    (r16c2t8n1 128)
    (r16c2t8n2 128)
    (r16c2t8n3 128)
    (r16c2t8n4 128)
    (r16c2t6n3 128)
    (r16c2t7n3 128)
)
Pstream initialized with:
    floatTransfer      : 0
    nProcsSimpleSum    : 0
    commsType          : nonBlocking
    polling iterations : 0
trapFpe: Floating point exception trapping enabled (FOAM_SIGFPE).
fileModificationChecking : Monitoring run-time modified files using timeStampMaster (fileModificationSkew 10)
allowSystemOperations : Allowing user-supplied system call operations

// * * * * * * * * * * * * * * * * * * * * * * * * * * * * * * * * * * * * * //
Create time

Create mesh for time = 0

/*---------------------------------------------------------------------------*\
| =========                 |                                                 |
| \\      /  F ield         | OpenFOAM: The Open Source CFD Toolbox           |
[...]
    (r16c1t6n1 128)
    (r16c1t6n2 128)
    (r16c1t6n3 128)
    (r16c1t6n4 128)
    (r16c1t7n1 128)
    (r16c1t7n2 128)
    (r16c1t7n3 128)
    (r16c1t7n4 128)
    (r16c1t8n1 128)
    (r16c1t8n2 128)
    (r16c1t8n3 128)
    (r16c1t8n4 128)
    (r16c2t1n1 128)
    (r16c2t1n2 128)
    (r16c2t1n3 128)
    (r16c2t1n4 128)
    (r16c2t2n1 128)
    (r16c2t2n2 128)
    (r16c2t2n3 128)
    (r16c2t2n4 128)
    (r16c2t3n1 128)
    (r16c2t3n2 128)
    (r16c2t3n3 128)
    (r16c2t3n4 128)
    (r16c2t4n1 128)
    (r16c2t4n2 128)
    (r16c2t4n3 128)
    (r16c2t4n4 128)
    (r16c2t5n1 128)
    (r16c2t5n2 128)
    (r16c2t5n3 128)
    (r16c2t5n4 128)
    (r16c2t6n1 128)
    (r16c2t6n2 128)
    (r16c2t6n4 128)
    (r16c2t7n1 128)
    (r16c2t7n2 128)
    (r16c2t7n4 128)
    (r16c2t8n1 128)
    (r16c2t8n2 128)
    (r16c2t8n3 128)
    (r16c2t8n4 128)
    (r16c2t6n3 128)
    (r16c2t7n3 128)
)
Pstream initialized with:
    floatTransfer      : 0
    nProcsSimpleSum    : 0
    commsType          : nonBlocking
    polling iterations : 0
trapFpe: Floating point exception trapping enabled (FOAM_SIGFPE).
fileModificationChecking : Monitoring run-time modified files using timeStampMaster (fileModificationSkew 10)
allowSystemOperations : Allowing user-supplied system call operations

// * * * * * * * * * * * * * * * * * * * * * * * * * * * * * * * * * * * * * //
Create time

Create mesh for time = 0

/*---------------------------------------------------------------------------*\
| =========                 |                                                 |
| \\      /  F ield         | OpenFOAM: The Open Source CFD Toolbox           |
|  \\    /   O peration     | Version:  v1912                                 |
|   \\  /    A nd           | Website:  www.openfoam.com                      |
|    \\/     M anipulation  |                                                 |
\*---------------------------------------------------------------------------*/
Build  : _f3950763fe-20191219 OPENFOAM=1912
Arch   : "LSB;label=32;scalar=64"
Exec   : rhoPimpleAPIO_METRICS -parallel
Date   : Oct 30 2020
Time   : 03:57:47
Host   : r16c1t1n1
PID    : 92778
I/O    : uncollated
Case   : /lustre/cray/ws9/2/ws/hpcmcast-ashee2/HAWK/apio_256M/8192
nProcs : 8192
Hosts  :
(
    (r16c1t1n1 128)
    (r16c1t1n2 128)
    (r16c1t1n3 128)
    (r16c1t1n4 128)
    (r16c1t2n1 128)
    (r16c1t2n2 128)
    (r16c1t2n3 128)
    (r16c1t2n4 128)
    (r16c1t3n1 128)
    (r16c1t3n2 128)
    (r16c1t3n3 128)
    (r16c1t3n4 128)
    (r16c1t4n1 128)
    (r16c1t4n2 128)
    (r16c1t4n3 128)
    (r16c1t4n4 128)
    (r16c1t5n1 128)
    (r16c1t5n2 128)
    (r16c1t5n3 128)
    (r16c1t5n4 128)
    (r16c1t6n1 128)
    (r16c1t6n2 128)
    (r16c1t6n3 128)
    (r16c1t6n4 128)
    (r16c1t7n1 128)
    (r16c1t7n2 128)
    (r16c1t7n3 128)
    (r16c1t7n4 128)
    (r16c1t8n1 128)
    (r16c1t8n2 128)
    (r16c1t8n3 128)
    (r16c1t8n4 128)
    (r16c2t1n1 128)
    (r16c2t1n2 128)
    (r16c2t1n3 128)
    (r16c2t1n4 128)
    (r16c2t2n1 128)
    (r16c2t2n2 128)
    (r16c2t2n3 128)
    (r16c2t2n4 128)
    (r16c2t3n1 128)
    (r16c2t3n2 128)
    (r16c2t3n3 128)
    (r16c2t3n4 128)
    (r16c2t4n1 128)
    (r16c2t4n2 128)
    (r16c2t4n3 128)
    (r16c2t4n4 128)
    (r16c2t5n1 128)
    (r16c2t5n2 128)
    (r16c2t5n3 128)
    (r16c2t5n4 128)
    (r16c2t6n1 128)
    (r16c2t6n2 128)
    (r16c2t6n4 128)
    (r16c2t7n1 128)
    (r16c2t7n2 128)
    (r16c2t7n4 128)
    (r16c2t8n1 128)
    (r16c2t8n2 128)
    (r16c2t8n3 128)
    (r16c2t8n4 128)
    (r16c2t6n3 128)
    (r16c2t7n3 128)
)
Pstream initialized with:
    floatTransfer      : 0
    nProcsSimpleSum    : 0
    commsType          : nonBlocking
    polling iterations : 0
trapFpe: Floating point exception trapping enabled (FOAM_SIGFPE).
fileModificationChecking : Monitoring run-time modified files using timeStampMaster (fileModificationSkew 10)
allowSystemOperations : Allowing user-supplied system call operations

// * * * * * * * * * * * * * * * * * * * * * * * * * * * * * * * * * * * * * //
Create time

Create mesh for time = 0

/*---------------------------------------------------------------------------*\
| =========                 |                                                 |
| \\      /  F ield         | OpenFOAM: The Open Source CFD Toolbox           |
|  \\    /   O peration     | Version:  v1912                                 |
|   \\  /    A nd           | Website:  www.openfoam.com                      |
|    \\/     M anipulation  |                                                 |
\*---------------------------------------------------------------------------*/
Build  : _f3950763fe-20191219 OPENFOAM=1912
Arch   : "LSB;label=32;scalar=64"
Exec   : rhoPimpleAPIO_METRICS -parallel
Date   : Oct 30 2020
Time   : 03:58:30
Host   : r16c1t1n1
PID    : 95367
I/O    : uncollated
Case   : /lustre/cray/ws9/2/ws/hpcmcast-ashee2/HAWK/apio_256M/8192
nProcs : 8192
Hosts  :
(
    (r16c1t1n1 128)
    (r16c1t1n2 128)
    (r16c1t1n3 128)
    (r16c1t1n4 128)
    (r16c1t2n1 128)
    (r16c1t2n2 128)
    (r16c1t2n3 128)
    (r16c1t2n4 128)
    (r16c1t3n1 128)
    (r16c1t3n2 128)
    (r16c1t3n3 128)
    (r16c1t3n4 128)
    (r16c1t4n1 128)
    (r16c1t4n2 128)
    (r16c1t4n3 128)
    (r16c1t4n4 128)
    (r16c1t5n1 128)
    (r16c1t5n2 128)
    (r16c1t5n3 128)
    (r16c1t5n4 128)
    (r16c1t6n1 128)
    (r16c1t6n2 128)
    (r16c1t6n3 128)
    (r16c1t6n4 128)
    (r16c1t7n1 128)
    (r16c1t7n2 128)
    (r16c1t7n3 128)
    (r16c1t7n4 128)
    (r16c1t8n1 128)
    (r16c1t8n2 128)
    (r16c1t8n3 128)
    (r16c1t8n4 128)
    (r16c2t1n1 128)
    (r16c2t1n2 128)
    (r16c2t1n3 128)
    (r16c2t1n4 128)
    (r16c2t2n1 128)
    (r16c2t2n2 128)
    (r16c2t2n3 128)
    (r16c2t2n4 128)
    (r16c2t3n1 128)
    (r16c2t3n2 128)
    (r16c2t3n3 128)
    (r16c2t3n4 128)
    (r16c2t4n1 128)
    (r16c2t4n2 128)
    (r16c2t4n3 128)
    (r16c2t4n4 128)
    (r16c2t5n1 128)
    (r16c2t5n2 128)
    (r16c2t5n3 128)
    (r16c2t5n4 128)
    (r16c2t6n1 128)
    (r16c2t6n2 128)
    (r16c2t6n4 128)
    (r16c2t7n1 128)
    (r16c2t7n2 128)
    (r16c2t7n4 128)
    (r16c2t8n1 128)
    (r16c2t8n2 128)
    (r16c2t8n3 128)
    (r16c2t8n4 128)
    (r16c2t6n3 128)
    (r16c2t7n3 128)
)
Pstream initialized with:
    floatTransfer      : 0
    nProcsSimpleSum    : 0
    commsType          : nonBlocking
    polling iterations : 0
trapFpe: Floating point exception trapping enabled (FOAM_SIGFPE).
fileModificationChecking : Monitoring run-time modified files using timeStampMaster (fileModificationSkew 10)
allowSystemOperations : Allowing user-supplied system call operations

// * * * * * * * * * * * * * * * * * * * * * * * * * * * * * * * * * * * * * //
Create time

Create mesh for time = 0

/*---------------------------------------------------------------------------*\
| =========                 |                                                 |
| \\      /  F ield         | OpenFOAM: The Open Source CFD Toolbox           |
|  \\    /   O peration     | Version:  v1912                                 |
|   \\  /    A nd           | Website:  www.openfoam.com                      |
|    \\/     M anipulation  |                                                 |
\*---------------------------------------------------------------------------*/
Build  : _f3950763fe-20191219 OPENFOAM=1912
Arch   : "LSB;label=32;scalar=64"
Exec   : rhoPimpleAPIO_METRICS -parallel
Date   : Oct 30 2020
Time   : 03:59:11
Host   : r16c1t1n1
PID    : 98030
I/O    : uncollated
Case   : /lustre/cray/ws9/2/ws/hpcmcast-ashee2/HAWK/apio_256M/8192
nProcs : 8192
Hosts  :
(
    (r16c1t1n1 128)
    (r16c1t1n2 128)
    (r16c1t1n3 128)
    (r16c1t1n4 128)
    (r16c1t2n1 128)
    (r16c1t2n2 128)
    (r16c1t2n3 128)
    (r16c1t2n4 128)
    (r16c1t3n1 128)
    (r16c1t3n2 128)
    (r16c1t3n3 128)
    (r16c1t3n4 128)
    (r16c1t4n1 128)
    (r16c1t4n2 128)
    (r16c1t4n3 128)
    (r16c1t4n4 128)
    (r16c1t5n1 128)
    (r16c1t5n2 128)
    (r16c1t5n3 128)
    (r16c1t5n4 128)
    (r16c1t6n1 128)
    (r16c1t6n2 128)
    (r16c1t6n3 128)
    (r16c1t6n4 128)
    (r16c1t7n1 128)
    (r16c1t7n2 128)
    (r16c1t7n3 128)
    (r16c1t7n4 128)
    (r16c1t8n1 128)
    (r16c1t8n2 128)
    (r16c1t8n3 128)
    (r16c1t8n4 128)
    (r16c2t1n1 128)
    (r16c2t1n2 128)
    (r16c2t1n3 128)
    (r16c2t1n4 128)
    (r16c2t2n1 128)
    (r16c2t2n2 128)
    (r16c2t2n3 128)
    (r16c2t2n4 128)
    (r16c2t3n1 128)
    (r16c2t3n2 128)
    (r16c2t3n3 128)
    (r16c2t3n4 128)
    (r16c2t4n1 128)
    (r16c2t4n2 128)
    (r16c2t4n3 128)
    (r16c2t4n4 128)
    (r16c2t5n1 128)
    (r16c2t5n2 128)
    (r16c2t5n3 128)
    (r16c2t5n4 128)
    (r16c2t6n1 128)
    (r16c2t6n2 128)
    (r16c2t6n4 128)
    (r16c2t7n1 128)
    (r16c2t7n2 128)
    (r16c2t7n4 128)
    (r16c2t8n1 128)
    (r16c2t8n2 128)
    (r16c2t8n3 128)
    (r16c2t8n4 128)
    (r16c2t6n3 128)
    (r16c2t7n3 128)
)
Pstream initialized with:
    floatTransfer      : 0
    nProcsSimpleSum    : 0
    commsType          : nonBlocking
    polling iterations : 0
trapFpe: Floating point exception trapping enabled (FOAM_SIGFPE).
fileModificationChecking : Monitoring run-time modified files using timeStampMaster (fileModificationSkew 10)
allowSystemOperations : Allowing user-supplied system call operations

// * * * * * * * * * * * * * * * * * * * * * * * * * * * * * * * * * * * * * //
Create time

Create mesh for time = 0

/*---------------------------------------------------------------------------*\
| =========                 |                                                 |
| \\      /  F ield         | OpenFOAM: The Open Source CFD Toolbox           |
|  \\    /   O peration     | Version:  v1912                                 |
|   \\  /    A nd           | Website:  www.openfoam.com                      |
|    \\/     M anipulation  |                                                 |
\*---------------------------------------------------------------------------*/
Build  : _f3950763fe-20191219 OPENFOAM=1912
Arch   : "LSB;label=32;scalar=64"
Exec   : rhoPimpleAPIO_METRICS -parallel
Date   : Oct 30 2020
Time   : 03:59:51
Host   : r16c1t1n1
PID    : 100617
I/O    : uncollated
Case   : /lustre/cray/ws9/2/ws/hpcmcast-ashee2/HAWK/apio_256M/8192
nProcs : 8192
Hosts  :
(
    (r16c1t1n1 128)
    (r16c1t1n2 128)
    (r16c1t1n3 128)
    (r16c1t1n4 128)
    (r16c1t2n1 128)
    (r16c1t2n2 128)
    (r16c1t2n3 128)
    (r16c1t2n4 128)
    (r16c1t3n1 128)
    (r16c1t3n2 128)
    (r16c1t3n3 128)
    (r16c1t3n4 128)
    (r16c1t4n1 128)
    (r16c1t4n2 128)
    (r16c1t4n3 128)
    (r16c1t4n4 128)
    (r16c1t5n1 128)
    (r16c1t5n2 128)
    (r16c1t5n3 128)
    (r16c1t5n4 128)
    (r16c1t6n1 128)
    (r16c1t6n2 128)
    (r16c1t6n3 128)
    (r16c1t6n4 128)
    (r16c1t7n1 128)
    (r16c1t7n2 128)
    (r16c1t7n3 128)
    (r16c1t7n4 128)
    (r16c1t8n1 128)
    (r16c1t8n2 128)
    (r16c1t8n3 128)
    (r16c1t8n4 128)
    (r16c2t1n1 128)
    (r16c2t1n2 128)
    (r16c2t1n3 128)
    (r16c2t1n4 128)
    (r16c2t2n1 128)
    (r16c2t2n2 128)
    (r16c2t2n3 128)
    (r16c2t2n4 128)
    (r16c2t3n1 128)
    (r16c2t3n2 128)
    (r16c2t3n3 128)
    (r16c2t3n4 128)
    (r16c2t4n1 128)
    (r16c2t4n2 128)
    (r16c2t4n3 128)
    (r16c2t4n4 128)
    (r16c2t5n1 128)
    (r16c2t5n2 128)
    (r16c2t5n3 128)
    (r16c2t5n4 128)
    (r16c2t6n1 128)
    (r16c2t6n2 128)
    (r16c2t6n4 128)
    (r16c2t7n1 128)
    (r16c2t7n2 128)
    (r16c2t7n4 128)
    (r16c2t8n1 128)
    (r16c2t8n2 128)
    (r16c2t8n3 128)
    (r16c2t8n4 128)
    (r16c2t6n3 128)
    (r16c2t7n3 128)
)
Pstream initialized with:
    floatTransfer      : 0
    nProcsSimpleSum    : 0
    commsType          : nonBlocking
    polling iterations : 0
trapFpe: Floating point exception trapping enabled (FOAM_SIGFPE).
fileModificationChecking : Monitoring run-time modified files using timeStampMaster (fileModificationSkew 10)
allowSystemOperations : Allowing user-supplied system call operations

// * * * * * * * * * * * * * * * * * * * * * * * * * * * * * * * * * * * * * //
Create time

Create mesh for time = 0

/*---------------------------------------------------------------------------*\
| =========                 |                                                 |
| \\      /  F ield         | OpenFOAM: The Open Source CFD Toolbox           |
|  \\    /   O peration     | Version:  v1912                                 |
|   \\  /    A nd           | Website:  www.openfoam.com                      |
|    \\/     M anipulation  |                                                 |
\*---------------------------------------------------------------------------*/
Build  : _f3950763fe-20191219 OPENFOAM=1912
Arch   : "LSB;label=32;scalar=64"
Exec   : rhoPimpleAPIO_METRICS -parallel
Date   : Oct 30 2020
Time   : 04:00:34
Host   : r16c1t1n1
PID    : 103211
I/O    : uncollated
Case   : /lustre/cray/ws9/2/ws/hpcmcast-ashee2/HAWK/apio_256M/8192
nProcs : 8192
Hosts  :
(
    (r16c1t1n1 128)
    (r16c1t1n2 128)
    (r16c1t1n3 128)
    (r16c1t1n4 128)
    (r16c1t2n1 128)
    (r16c1t2n2 128)
    (r16c1t2n3 128)
    (r16c1t2n4 128)
    (r16c1t3n1 128)
    (r16c1t3n2 128)
    (r16c1t3n3 128)
    (r16c1t3n4 128)
    (r16c1t4n1 128)
    (r16c1t4n2 128)
    (r16c1t4n3 128)
    (r16c1t4n4 128)
    (r16c1t5n1 128)
    (r16c1t5n2 128)
    (r16c1t5n3 128)
    (r16c1t5n4 128)
    (r16c1t6n1 128)
    (r16c1t6n2 128)
    (r16c1t6n3 128)
    (r16c1t6n4 128)
    (r16c1t7n1 128)
    (r16c1t7n2 128)
    (r16c1t7n3 128)
    (r16c1t7n4 128)
    (r16c1t8n1 128)
    (r16c1t8n2 128)
    (r16c1t8n3 128)
    (r16c1t8n4 128)
    (r16c2t1n1 128)
    (r16c2t1n2 128)
    (r16c2t1n3 128)
    (r16c2t1n4 128)
    (r16c2t2n1 128)
    (r16c2t2n2 128)
    (r16c2t2n3 128)
    (r16c2t2n4 128)
    (r16c2t3n1 128)
    (r16c2t3n2 128)
    (r16c2t3n3 128)
    (r16c2t3n4 128)
    (r16c2t4n1 128)
    (r16c2t4n2 128)
    (r16c2t4n3 128)
    (r16c2t4n4 128)
    (r16c2t5n1 128)
    (r16c2t5n2 128)
    (r16c2t5n3 128)
    (r16c2t5n4 128)
    (r16c2t6n1 128)
    (r16c2t6n2 128)
    (r16c2t6n4 128)
    (r16c2t7n1 128)
    (r16c2t7n2 128)
    (r16c2t7n4 128)
    (r16c2t8n1 128)
    (r16c2t8n2 128)
    (r16c2t8n3 128)
    (r16c2t8n4 128)
    (r16c2t6n3 128)
    (r16c2t7n3 128)
)
Pstream initialized with:
    floatTransfer      : 0
    nProcsSimpleSum    : 0
    commsType          : nonBlocking
    polling iterations : 0
trapFpe: Floating point exception trapping enabled (FOAM_SIGFPE).
fileModificationChecking : Monitoring run-time modified files using timeStampMaster (fileModificationSkew 10)
allowSystemOperations : Allowing user-supplied system call operations

// * * * * * * * * * * * * * * * * * * * * * * * * * * * * * * * * * * * * * //
Create time

Create mesh for time = 0

/*---------------------------------------------------------------------------*\
| =========                 |                                                 |
| \\      /  F ield         | OpenFOAM: The Open Source CFD Toolbox           |
|  \\    /   O peration     | Version:  v1912                                 |
|   \\  /    A nd           | Website:  www.openfoam.com                      |
|    \\/     M anipulation  |                                                 |
\*---------------------------------------------------------------------------*/
Build  : _f3950763fe-20191219 OPENFOAM=1912
Arch   : "LSB;label=32;scalar=64"
Exec   : rhoPimpleAPIO_METRICS -parallel
Date   : Oct 30 2020
Time   : 04:01:16
Host   : r16c1t1n1
PID    : 105807
I/O    : uncollated
Case   : /lustre/cray/ws9/2/ws/hpcmcast-ashee2/HAWK/apio_256M/8192
nProcs : 8192
Hosts  :
(
    (r16c1t1n1 128)
    (r16c1t1n2 128)
    (r16c1t1n3 128)
    (r16c1t1n4 128)
    (r16c1t2n1 128)
    (r16c1t2n2 128)
    (r16c1t2n3 128)
    (r16c1t2n4 128)
    (r16c1t3n1 128)
    (r16c1t3n2 128)
    (r16c1t3n3 128)
    (r16c1t3n4 128)
    (r16c1t4n1 128)
    (r16c1t4n2 128)
    (r16c1t4n3 128)
    (r16c1t4n4 128)
    (r16c1t5n1 128)
    (r16c1t5n2 128)
    (r16c1t5n3 128)
    (r16c1t5n4 128)
    (r16c1t6n1 128)
    (r16c1t6n2 128)
    (r16c1t6n3 128)
    (r16c1t6n4 128)
    (r16c1t7n1 128)
    (r16c1t7n2 128)
    (r16c1t7n3 128)
    (r16c1t7n4 128)
    (r16c1t8n1 128)
    (r16c1t8n2 128)
    (r16c1t8n3 128)
    (r16c1t8n4 128)
    (r16c2t1n1 128)
    (r16c2t1n2 128)
    (r16c2t1n3 128)
    (r16c2t1n4 128)
    (r16c2t2n1 128)
    (r16c2t2n2 128)
    (r16c2t2n3 128)
    (r16c2t2n4 128)
    (r16c2t3n1 128)
    (r16c2t3n2 128)
    (r16c2t3n3 128)
    (r16c2t3n4 128)
    (r16c2t4n1 128)
    (r16c2t4n2 128)
    (r16c2t4n3 128)
    (r16c2t4n4 128)
    (r16c2t5n1 128)
    (r16c2t5n2 128)
    (r16c2t5n3 128)
    (r16c2t5n4 128)
    (r16c2t6n1 128)
    (r16c2t6n2 128)
    (r16c2t6n4 128)
    (r16c2t7n1 128)
    (r16c2t7n2 128)
    (r16c2t7n4 128)
    (r16c2t8n1 128)
    (r16c2t8n2 128)
    (r16c2t8n3 128)
    (r16c2t8n4 128)
    (r16c2t6n3 128)
    (r16c2t7n3 128)
)
Pstream initialized with:
    floatTransfer      : 0
    nProcsSimpleSum    : 0
    commsType          : nonBlocking
    polling iterations : 0
trapFpe: Floating point exception trapping enabled (FOAM_SIGFPE).
fileModificationChecking : Monitoring run-time modified files using timeStampMaster (fileModificationSkew 10)
allowSystemOperations : Allowing user-supplied system call operations

// * * * * * * * * * * * * * * * * * * * * * * * * * * * * * * * * * * * * * //
Create time

Create mesh for time = 0

/*---------------------------------------------------------------------------*\
| =========                 |                                                 |
| \\      /  F ield         | OpenFOAM: The Open Source CFD Toolbox           |
|  \\    /   O peration     | Version:  v1912                                 |
|   \\  /    A nd           | Website:  www.openfoam.com                      |
|    \\/     M anipulation  |                                                 |
\*---------------------------------------------------------------------------*/
Build  : _f3950763fe-20191219 OPENFOAM=1912
Arch   : "LSB;label=32;scalar=64"
Exec   : rhoPimpleAPIO_METRICS -parallel
Date   : Oct 30 2020
Time   : 04:01:57
Host   : r16c1t1n1
PID    : 108403
I/O    : uncollated
Case   : /lustre/cray/ws9/2/ws/hpcmcast-ashee2/HAWK/apio_256M/8192
nProcs : 8192
Hosts  :
(
    (r16c1t1n1 128)
    (r16c1t1n2 128)
    (r16c1t1n3 128)
    (r16c1t1n4 128)
    (r16c1t2n1 128)
    (r16c1t2n2 128)
    (r16c1t2n3 128)
    (r16c1t2n4 128)
    (r16c1t3n1 128)
    (r16c1t3n2 128)
    (r16c1t3n3 128)
    (r16c1t3n4 128)
    (r16c1t4n1 128)
    (r16c1t4n2 128)
    (r16c1t4n3 128)
    (r16c1t4n4 128)
    (r16c1t5n1 128)
    (r16c1t5n2 128)
    (r16c1t5n3 128)
    (r16c1t5n4 128)
    (r16c1t6n1 128)
    (r16c1t6n2 128)
    (r16c1t6n3 128)
    (r16c1t6n4 128)
    (r16c1t7n1 128)
    (r16c1t7n2 128)
    (r16c1t7n3 128)
    (r16c1t7n4 128)
    (r16c1t8n1 128)
    (r16c1t8n2 128)
    (r16c1t8n3 128)
    (r16c1t8n4 128)
    (r16c2t1n1 128)
    (r16c2t1n2 128)
    (r16c2t1n3 128)
    (r16c2t1n4 128)
    (r16c2t2n1 128)
    (r16c2t2n2 128)
    (r16c2t2n3 128)
    (r16c2t2n4 128)
    (r16c2t3n1 128)
    (r16c2t3n2 128)
    (r16c2t3n3 128)
    (r16c2t3n4 128)
    (r16c2t4n1 128)
    (r16c2t4n2 128)
    (r16c2t4n3 128)
    (r16c2t4n4 128)
    (r16c2t5n1 128)
    (r16c2t5n2 128)
    (r16c2t5n3 128)
    (r16c2t5n4 128)
    (r16c2t6n1 128)
    (r16c2t6n2 128)
    (r16c2t6n4 128)
    (r16c2t7n1 128)
    (r16c2t7n2 128)
    (r16c2t7n4 128)
    (r16c2t8n1 128)
    (r16c2t8n2 128)
    (r16c2t8n3 128)
    (r16c2t8n4 128)
    (r16c2t6n3 128)
    (r16c2t7n3 128)
)
Pstream initialized with:
    floatTransfer      : 0
    nProcsSimpleSum    : 0
    commsType          : nonBlocking
    polling iterations : 0
trapFpe: Floating point exception trapping enabled (FOAM_SIGFPE).
fileModificationChecking : Monitoring run-time modified files using timeStampMaster (fileModificationSkew 10)
allowSystemOperations : Allowing user-supplied system call operations

// * * * * * * * * * * * * * * * * * * * * * * * * * * * * * * * * * * * * * //
Create time

Create mesh for time = 0

