/*---------------------------------------------------------------------------*\
| =========                 |                                                 |
| \\      /  F ield         | OpenFOAM: The Open Source CFD Toolbox           |
|  \\    /   O peration     | Version:  v1912                                 |
|   \\  /    A nd           | Website:  www.openfoam.com                      |
|    \\/     M anipulation  |                                                 |
\*---------------------------------------------------------------------------*/
Build  : _f3950763fe-20191219 OPENFOAM=1912
Arch   : "LSB;label=32;scalar=64"
Exec   : rhoPimpleAPIO_METRICS -parallel
Date   : Oct 27 2020
Time   : 12:58:29
Host   : r42c4t5n3
PID    : 110758
I/O    : uncollated
Case   : /lustre/cray/ws9/2/ws/hpcmcast-ashee2/HAWK/apio_32M/256
nProcs : 256
Hosts  :
(
    (r42c4t5n3 128)
    (r42c4t5n4 128)
)
Pstream initialized with:
    floatTransfer      : 0
    nProcsSimpleSum    : 0
    commsType          : nonBlocking
    polling iterations : 0
trapFpe: Floating point exception trapping enabled (FOAM_SIGFPE).
fileModificationChecking : Monitoring run-time modified files using timeStampMaster (fileModificationSkew 10)
allowSystemOperations : Allowing user-supplied system call operations

// * * * * * * * * * * * * * * * * * * * * * * * * * * * * * * * * * * * * * //
Create time

Create mesh for time = 0


PIMPLE: Operating solver in PISO mode

Reading thermophysical properties

Selecting thermodynamics package 
{
    type            hePsiThermo;
    mixture         pureMixture;
    transport       const;
    thermo          eConst;
    equationOfState perfectGas;
    specie          specie;
    energy          sensibleInternalEnergy;
}

Reading field U

Reading/calculating face flux field phi

--> FOAM Warning : 
    From function Foam::pressureControl::pressureControl(const volScalarField&, const volScalarField&, const Foam::dictionary&, bool)
    in file cfdTools/general/pressureControl/pressureControl.C at line 123
    Reading "/lustre/cray/ws9/2/ws/hpcmcast-ashee2/HAWK/apio_32M/256/system/fvSolution.PIMPLE"
    'rhoMax' specified rather than 'pMax' or 'pMaxFactor'
    This is supported for backward-compatibility but 'pMax' or 'pMaxFactor' are more reliable.
--> FOAM Warning : 
    From function Foam::pressureControl::pressureControl(const volScalarField&, const volScalarField&, const Foam::dictionary&, bool)
    in file cfdTools/general/pressureControl/pressureControl.C at line 178
    Reading "/lustre/cray/ws9/2/ws/hpcmcast-ashee2/HAWK/apio_32M/256/system/fvSolution.PIMPLE"
    'rhoMin' specified rather than 'pMin' or 'pMinFactor'
    This is supported for backward-compatibility but 'pMin' or 'pMinFactor' are more reliable.
pressureControl
    pMax 1726187.557059955
    pMin 4747.015781914877

Creating turbulence model

Selecting turbulence model type LES
Selecting LES turbulence model kEqn
Selecting LES delta type cubeRootVol
LES
{
    LESModel        kEqn;
    turbulence      on;
    printCoeffs     on;
    delta           cubeRootVol;
    cubeRootVolCoeffs
    {
        deltaCoeff      1;
    }
    PrandtlCoeffs
    {
        delta           cubeRootVol;
        cubeRootVolCoeffs
        {
            deltaCoeff      1;
        }
        smoothCoeffs
        {
            delta           cubeRootVol;
            cubeRootVolCoeffs
            {
                deltaCoeff      1;
            }
            maxDeltaRatio   1.1;
        }
        Cdelta          0.158;
    }
    vanDriestCoeffs
    {
        delta           cubeRootVol;
        cubeRootVolCoeffs
        {
            deltaCoeff      1;
        }
        smoothCoeffs
        {
            delta           cubeRootVol;
            cubeRootVolCoeffs
            {
                deltaCoeff      1;
            }
            maxDeltaRatio   1.1;
        }
        Aplus           26;
        Cdelta          0.158;
    }
    smoothCoeffs
    {
        delta           cubeRootVol;
        cubeRootVolCoeffs
        {
            deltaCoeff      1;
        }
        maxDeltaRatio   1.1;
    }
    Ce              1.048;
    Ck              0.094;
}

Creating field dpdt

Creating field kinetic energy K

No MRF models present

APIO_procNo = 56
APIO_procNo = 57
APIO_procNo = 58
APIO_procNo = 59
APIO_procNo = 60
APIO_procNo = 61
APIO_procNo = 62
APIO_procNo = 63
APIO_procNo = 64
APIO_procNo = 65
APIO_procNo = 66
APIO_procNo = 67
APIO_procNo = 68
APIO_procNo = 69
APIO_procNo = 70
APIO_procNo = 71
APIO_procNo = 72
APIO_procNo = 73
APIO_procNo = 74
APIO_procNo = 75
APIO_procNo = 76
APIO_procNo = 77
APIO_procNo = 78
APIO_procNo = 79
APIO_procNo = 80
writeThread 80 on CPU 208
APIO_procNo = 81
APIO_procNo = 82
APIO_procNo = 83
APIO_procNo = 84
APIO_procNo = 85
APIO_procNo = 86
APIO_procNo = 87
APIO_procNo = 88
APIO_procNo = 89
APIO_procNo = 90
APIO_procNo = 91
APIO_procNo = 92
APIO_procNo = 93
APIO_procNo = 94
APIO_procNo = 95
APIO_procNo = 96
APIO_procNo = 97
APIO_procNo = 98
APIO_procNo = 99
APIO_procNo = 100
APIO_procNo = 101
APIO_procNo = 102
APIO_procNo = 103
APIO_procNo = 104
APIO_procNo = 105
APIO_procNo = 106
APIO_procNo = 107
APIO_procNo = 108
APIO_procNo = 109
APIO_procNo = 110
APIO_procNo = 111
APIO_procNo = 112
APIO_procNo = 113
APIO_procNo = 114
APIO_procNo = 115
APIO_procNo = 116
APIO_procNo = 117
APIO_procNo = 118
APIO_procNo = 119
APIO_procNo = 120
APIO_procNo = 121
APIO_procNo = 122
APIO_procNo = 123
APIO_procNo = 124
APIO_procNo = 125
APIO_procNo = 126
APIO_procNo = 127
No finite volume options present
APIO_procNo = 0
APIO_masterNo = 0
APIO_procNo = 1
writeThread 1 on CPU 129
APIO_procNo = 2
writeThread 2 on CPU 130
APIO_procNo = 3
writeThread 3 on CPU 131
APIO_procNo = 4
writeThread 4 on CPU 132
APIO_procNo = 5
writeThread 5 on CPU 133
APIO_procNo = 6
writeThread 6 on CPU 134
APIO_procNo = 7
writeThread 7 on CPU 135
APIO_procNo = 8
writeThread 8 on CPU 136
APIO_procNo = 9
writeThread 9 on CPU 137
APIO_procNo = 10
writeThread 10 on CPU 138
APIO_procNo = 11
writeThread 11 on CPU 139
APIO_procNo = 12
writeThread 12 on CPU 140
APIO_procNo = 13
writeThread 13 on CPU 141
APIO_procNo = 14
writeThread 14 on CPU 142
APIO_procNo = 15
writeThread 15 on CPU 143
APIO_procNo = 16
writeThread 16 on CPU 144
APIO_procNo = 17
writeThread 17 on CPU 145
APIO_procNo = 18
writeThread 18 on CPU 146
APIO_procNo = 19
writeThread 19 on CPU 147
APIO_procNo = 20
writeThread 20 on CPU 148
APIO_procNo = 21
writeThread 21 on CPU 149
APIO_procNo = 22
writeThread 22 on CPU 150
APIO_procNo = 23
writeThread 23 on CPU 151
APIO_procNo = 24
writeThread 24 on CPU 152
APIO_procNo = 25
writeThread 25 on CPU 153
APIO_procNo = 26
writeThread 26 on CPU 154
APIO_procNo = 27
writeThread 27 on CPU 155
APIO_procNo = 28
writeThread 28 on CPU 156
APIO_procNo = 29
writeThread 29 on CPU 157
APIO_procNo = 30
writeThread 30 on CPU 158
APIO_procNo = 31
writeThread 31 on CPU 159
APIO_procNo = 32
writeThread 32 on CPU 160
APIO_procNo = 33
writeThread 33 on CPU 161
APIO_procNo = 34
writeThread 34 on CPU 162
APIO_procNo = 35
writeThread 35 on CPU 163
APIO_procNo = 36
writeThread 36 on CPU 164
APIO_procNo = 37
writeThread 37 on CPU 165
APIO_procNo = 38
writeThread 38 on CPU 166
APIO_procNo = 39
writeThread 39 on CPU 167
APIO_procNo = 40
writeThread 40 on CPU 168
APIO_procNo = 41
writeThread 41 on CPU 169
APIO_procNo = 42
writeThread 42 on CPU 170
APIO_procNo = 43
writeThread 43 on CPU 171
APIO_procNo = 44
writeThread 44 on CPU 172
APIO_procNo = 45
writeThread 45 on CPU 173
APIO_procNo = 46
writeThread 46 on CPU 174
APIO_procNo = 47
writeThread 47 on CPU 175
APIO_procNo = 48
writeThread 48 on CPU 176
APIO_procNo = 49
writeThread 49 on CPU 177
APIO_procNo = 50
writeThread 50 on CPU 178
APIO_procNo = 51
writeThread 51 on CPU 179
APIO_procNo = 52
writeThread 52 on CPU 180
APIO_procNo = 53
writeThread 53 on CPU 181
APIO_procNo = 54
writeThread 54 on CPU 182
APIO_procNo = 55
writeThread 55 on CPU 183
writeThread 81 on CPU 209
writeThread 82 on CPU 210
writeThread 83 on CPU 211
writeThread 84 on CPU 212
writeThread 85 on CPU 213
writeThread 86 on CPU 214
writeThread 87 on CPU 215
writeThread 88 on CPU 216
writeThread 89 on CPU 217
writeThread 90 on CPU 218
writeThread 91 on CPU 219
writeThread 92 on CPU 220
writeThread 94 on CPU 222
writeThread 95 on CPU 223
writeThread 96 on CPU 224
writeThread 97 on CPU 225
writeThread 98 on CPU 226
writeThread 99 on CPU 227
writeThread 100 on CPU 228
writeThread 101 on CPU 229
writeThread 102 on CPU 230
writeThread 103 on CPU 231
writeThread 104 on CPU 232
writeThread 105 on CPU 233
writeThread 106 on CPU 234
writeThread 107 on CPU 235
writeThread 108 on CPU 236
writeThread 109 on CPU 237
writeThread 110 on CPU 238
writeThread 111 on CPU 239
writeThread 112 on CPU 240
writeThread 113 on CPU 241
writeThread 114 on CPU 242
writeThread 115 on CPU 243
writeThread 116 on CPU 244
writeThread 117 on CPU 245
writeThread 118 on CPU 246
writeThread 119 on CPU 247
writeThread 120 on CPU 248
writeThread 121 on CPU 249
writeThread 122 on CPU 250
writeThread 123 on CPU 251
writeThread 124 on CPU 252
writeThread 125 on CPU 253
writeThread 126 on CPU 254
writeThread 0 on CPU 128
writeThread 127 on CPU 255
writeThread 56 on CPU 184
writeThread 57 on CPU 185
writeThread 58 on CPU 186
writeThread 59 on CPU 187
writeThread 60 on CPU 188
writeThread 61 on CPU 189
writeThread 62 on CPU 190
writeThread 63 on CPU 191
writeThread 64 on CPU 192
writeThread 65 on CPU 193
writeThread 66 on CPU 194
writeThread 67 on CPU 195
writeThread 68 on CPU 196
writeThread 69 on CPU 197
writeThread 70 on CPU 198
writeThread 71 on CPU 199
writeThread 72 on CPU 200
writeThread 73 on CPU 201
writeThread 74 on CPU 202
writeThread 75 on CPU 203
writeThread 76 on CPU 204
writeThread 77 on CPU 205
writeThread 78 on CPU 206
writeThread 79 on CPU 207
writeThread 93 on CPU 221
APIO_procNo = 128
APIO_procNo = 129
APIO_procNo = 130
APIO_procNo = 131
APIO_procNo = 132
APIO_procNo = 133
APIO_procNo = 134
APIO_procNo = 135
APIO_procNo = 136
APIO_procNo = 137
APIO_procNo = 138
writeThread 138 on CPU 138
APIO_procNo = 139
APIO_procNo = 140
APIO_procNo = 141
APIO_procNo = 142
APIO_procNo = 143
APIO_procNo = 144
writeThread 144 on CPU 144
APIO_procNo = 145
writeThread 145 on CPU 145
APIO_procNo = 146
writeThread 146 on CPU 146
APIO_procNo = 147
writeThread 147 on CPU 147
APIO_procNo = 148
writeThread 148 on CPU 148
APIO_procNo = 149
writeThread 149 on CPU 149
APIO_procNo = 150
writeThread 150 on CPU 150
APIO_procNo = 151
writeThread 151 on CPU 151
APIO_procNo = 152
writeThread 152 on CPU 152
APIO_procNo = 153
writeThread 153 on CPU 153
APIO_procNo = 154
writeThread 154 on CPU 154
APIO_procNo = 155
writeThread 155 on CPU 155
APIO_procNo = 156
writeThread 156 on CPU 156
APIO_procNo = 157
writeThread 157 on CPU 157
APIO_procNo = 158
writeThread 158 on CPU 158
APIO_procNo = 159
writeThread 159 on CPU 159
APIO_procNo = 160
writeThread 160 on CPU 160
APIO_procNo = 161
writeThread 161 on CPU 161
APIO_procNo = 162
writeThread 162 on CPU 162
APIO_procNo = 163
writeThread 163 on CPU 163
APIO_procNo = 164
writeThread 164 on CPU 164
APIO_procNo = 165
writeThread 165 on CPU 165
APIO_procNo = 166
writeThread 166 on CPU 166
APIO_procNo = 167
writeThread 167 on CPU 167
APIO_procNo = 168
writeThread 168 on CPU 168
APIO_procNo = 169
writeThread 169 on CPU 169
APIO_procNo = 170
writeThread 170 on CPU 170
APIO_procNo = 171
writeThread 171 on CPU 171
APIO_procNo = 172
writeThread 172 on CPU 172
APIO_procNo = 173
writeThread 173 on CPU 173
APIO_procNo = 174
writeThread 174 on CPU 174
APIO_procNo = 175
writeThread 175 on CPU 175
APIO_procNo = 176
APIO_procNo = 177
APIO_procNo = 178
APIO_procNo = 179
APIO_procNo = 180
APIO_procNo = 181
writeThread 181 on CPU 181
APIO_procNo = 182
APIO_procNo = 183
writeThread 183 on CPU 183
APIO_procNo = 184
writeThread 184 on CPU 184
APIO_procNo = 185
APIO_procNo = 186
APIO_procNo = 187
APIO_procNo = 188
writeThread 188 on CPU 188
APIO_procNo = 189
APIO_procNo = 190
writeThread 190 on CPU 190
APIO_procNo = 191
writeThread 191 on CPU 191
APIO_procNo = 192
APIO_procNo = 193
APIO_procNo = 194
APIO_procNo = 195
writeThread 195 on CPU 67
Courant Number mean: 4.134521852239614e-11 max: 2.085039370078742e-05
APIO_procNo = 196
APIO_procNo = 197
writeThread 197 on CPU 197
APIO_procNo = 198
writeThread 198 on CPU 198
APIO_procNo = 199
writeThread 199 on CPU 199
APIO_procNo = 200
APIO_procNo = 201
APIO_procNo = 202

Starting time loop

APIO_procNo = 203
APIO_procNo = 204
writeThread 204 on CPU 204
APIO_procNo = 205
writeThread 205 on CPU 205
APIO_procNo = 206
writeThread 206 on CPU 206
APIO_procNo = 207
writeThread 207 on CPU 207
APIO_procNo = 208
writeThread 208 on CPU 208
APIO_procNo = 209
writeThread 209 on CPU 209
APIO_procNo = 210
writeThread 210 on CPU 210
APIO_procNo = 211
writeThread 211 on CPU 211
APIO_procNo = 212
writeThread 212 on CPU 212
APIO_procNo = 213
writeThread 213 on CPU 213
APIO_procNo = 214
writeThread 214 on CPU 214
APIO_procNo = 215
writeThread 215 on CPU 87
APIO_procNo = 216
writeThread 216 on CPU 216
APIO_procNo = 217
writeThread 217 on CPU 217
APIO_procNo = 218
writeThread 218 on CPU 218
APIO_procNo = 219
writeThread 219 on CPU 219
APIO_procNo = 220
writeThread 220 on CPU 220
APIO_procNo = 221
writeThread 221 on CPU 221
APIO_procNo = 222
writeThread 222 on CPU 222
APIO_procNo = 223
writeThread 223 on CPU 223
APIO_procNo = 224
writeThread 224 on CPU 224
APIO_procNo = 225
writeThread 225 on CPU 225
APIO_procNo = 226
writeThread 226 on CPU 226
APIO_procNo = 227
writeThread 227 on CPU 227
APIO_procNo = 228
writeThread 228 on CPU 228
APIO_procNo = 229
writeThread 229 on CPU 229
APIO_procNo = 230
writeThread 230 on CPU 230
APIO_procNo = 231
writeThread 231 on CPU 231
APIO_procNo = 232
writeThread 232 on CPU 232
APIO_procNo = 233
writeThread 233 on CPU 233
APIO_procNo = 234
writeThread 234 on CPU 234
APIO_procNo = 235
writeThread 235 on CPU 235
APIO_procNo = 236
writeThread 236 on CPU 236
APIO_procNo = 237
writeThread 237 on CPU 237
APIO_procNo = 238
writeThread 238 on CPU 238
APIO_procNo = 239
writeThread 239 on CPU 239
APIO_procNo = 240
writeThread 240 on CPU 240
APIO_procNo = 241
writeThread 241 on CPU 241
APIO_procNo = 242
writeThread 242 on CPU 242
APIO_procNo = 243
writeThread 243 on CPU 243
APIO_procNo = 244
writeThread 244 on CPU 244
APIO_procNo = 245
writeThread 245 on CPU 245
APIO_procNo = 246
APIO_procNo = 247
writeThread 247 on CPU 247
APIO_procNo = 248
writeThread 248 on CPU 248
APIO_procNo = 249
writeThread 249 on CPU 249
APIO_procNo = 250
writeThread 250 on CPU 250
APIO_procNo = 251
writeThread 251 on CPU 251
APIO_procNo = 252
writeThread 252 on CPU 252
APIO_procNo = 253
writeThread 253 on CPU 253
APIO_procNo = 254
writeThread 254 on CPU 254
APIO_procNo = 255
writeThread 255 on CPU 255
writeThread 128 on CPU 128
writeThread 129 on CPU 129
writeThread 130 on CPU 130
writeThread 131 on CPU 131
writeThread 132 on CPU 132
writeThread 133 on CPU 133
writeThread 134 on CPU 134
writeThread 135 on CPU 135
writeThread 136 on CPU 136
writeThread 137 on CPU 137
Courant Number mean: 4.134521852239614e-11 max: 2.085039370078742e-05
deltaT = 1.2e-09
Time = 1.2e-09

PIMPLE: iteration 1
writeThread 139 on CPU 139
writeThread 140 on CPU 140
writeThread 141 on CPU 141
writeThread 142 on CPU 142
writeThread 143 on CPU 143
writeThread 176 on CPU 176
writeThread 177 on CPU 177
writeThread 178 on CPU 178
writeThread 179 on CPU 179
writeThread 180 on CPU 180
writeThread 182 on CPU 182
writeThread 185 on CPU 185
writeThread 186 on CPU 186
writeThread 187 on CPU 187
writeThread 189 on CPU 189
writeThread 192 on CPU 192
writeThread 193 on CPU 193
writeThread 194 on CPU 194
writeThread 196 on CPU 196
writeThread 200 on CPU 200
writeThread 201 on CPU 201
writeThread 202 on CPU 202
writeThread 203 on CPU 203
writeThread 246 on CPU 246
diagonal:  Solving for rho, Initial residual = 0, Final residual = 0, No Iterations 0
DILUPBiCG:  Solving for Ux, Initial residual = 1, Final residual = 1.867363193248584e-20, No Iterations 2
DILUPBiCG:  Solving for Uy, Initial residual = 1, Final residual = 2.934319603197499e-20, No Iterations 2
DILUPBiCG:  Solving for Uz, Initial residual = 1, Final residual = 3.53445333702972e-20, No Iterations 2
DILUPBiCG:  Solving for e, Initial residual = 0.9999990153972125, Final residual = 1.421595860929902e-19, No Iterations 2
DILUPBiCG:  Solving for p, Initial residual = 0.9999996220458832, Final residual = 4.931654834482714e-10, No Iterations 1
pEqnloop: 0
diagonal:  Solving for rho, Initial residual = 0, Final residual = 0, No Iterations 0
time step continuity errors : sum local = 2.444583544679174e-16, global = -2.438760847025e-16, cumulative = -2.438760847025e-16
DILUPBiCG:  Solving for p, Initial residual = 1.179021047725126e-07, Final residual = 1.72369363716534e-16, No Iterations 1
pEqnloop: 1
diagonal:  Solving for rho, Initial residual = 0, Final residual = 0, No Iterations 0
time step continuity errors : sum local = 2.670305435577606e-16, global = -2.660355631391712e-16, cumulative = -5.099116478416712e-16
DILUPBiCG:  Solving for k, Initial residual = 0.9999999950594971, Final residual = 3.535749041718991e-20, No Iterations 2
ExecutionTime = 3.6 s  ClockTime = 4 s

Courant Number mean: 4.961451094373047e-11 max: 2.501990921293873e-05
deltaT = 1.44e-09
Time = 2.64e-09

PIMPLE: iteration 1
diagonal:  Solving for rho, Initial residual = 0, Final residual = 0, No Iterations 0
DILUPBiCG:  Solving for Ux, Initial residual = 0.3749195240688952, Final residual = 4.241326642440109e-21, No Iterations 2
DILUPBiCG:  Solving for Uy, Initial residual = 0.3749195240687826, Final residual = 6.656951542091175e-21, No Iterations 2
DILUPBiCG:  Solving for Uz, Initial residual = 0.2307601757170031, Final residual = 4.951521747697521e-21, No Iterations 2
DILUPBiCG:  Solving for e, Initial residual = 0.2307512174144266, Final residual = 1.987883119196574e-20, No Iterations 2
DILUPBiCG:  Solving for p, Initial residual = 0.2307584247213175, Final residual = 6.862286157168458e-11, No Iterations 1
pEqnloop: 0
diagonal:  Solving for rho, Initial residual = 0, Final residual = 0, No Iterations 0
time step continuity errors : sum local = 5.53774751182102e-16, global = -5.536371067351565e-16, cumulative = -1.063548754576828e-15
DILUPBiCG:  Solving for p, Initial residual = 7.841530570038444e-08, Final residual = 7.182938232009283e-15, No Iterations 1
pEqnloop: 1
diagonal:  Solving for rho, Initial residual = 0, Final residual = 0, No Iterations 0
time step continuity errors : sum local = 4.801596845419437e-16, global = -4.801542579940098e-16, cumulative = -1.543703012570837e-15
DILUPBiCG:  Solving for k, Initial residual = 0.7612500410084146, Final residual = 1.63615783552991e-20, No Iterations 2
ExecutionTime = 8.81 s  ClockTime = 10 s

Courant Number mean: 5.953777282901839e-11 max: 3.002308059560315e-05
deltaT = 1.728e-09
Time = 4.368e-09

PIMPLE: iteration 1
diagonal:  Solving for rho, Initial residual = 0, Final residual = 0, No Iterations 0
DILUPBiCG:  Solving for Ux, Initial residual = 0.323107718822226, Final residual = 5.337421305711227e-21, No Iterations 2
DILUPBiCG:  Solving for Uy, Initial residual = 0.3231077188501409, Final residual = 8.348247212487963e-21, No Iterations 2
DILUPBiCG:  Solving for Uz, Initial residual = 0.1406145040466775, Final residual = 4.432032106460387e-21, No Iterations 2
DILUPBiCG:  Solving for e, Initial residual = 0.1406066080196728, Final residual = 1.769640302779038e-20, No Iterations 2
DILUPBiCG:  Solving for p, Initial residual = 0.1406128428207602, Final residual = 6.022634409952031e-11, No Iterations 1
pEqnloop: 0
diagonal:  Solving for rho, Initial residual = 0, Final residual = 0, No Iterations 0
time step continuity errors : sum local = 6.629883472272474e-16, global = -6.627610533955686e-16, cumulative = -2.206464065966406e-15
DILUPBiCG:  Solving for p, Initial residual = 5.019464542598094e-08, Final residual = 4.049631817861251e-14, No Iterations 1
pEqnloop: 1
diagonal:  Solving for rho, Initial residual = 0, Final residual = 0, No Iterations 0
time step continuity errors : sum local = 6.455364518703105e-16, global = -6.455361119785394e-16, cumulative = -2.852000177944945e-15
DILUPBiCG:  Solving for k, Initial residual = 0.5223926727772212, Final residual = 1.652670144043233e-20, No Iterations 2
ExecutionTime = 15.38 s  ClockTime = 17 s

Courant Number mean: 7.144584772657022e-11 max: 3.602653054273845e-05
deltaT = 2.0736e-09
Time = 6.4416e-09

PIMPLE: iteration 1
diagonal:  Solving for rho, Initial residual = 0, Final residual = 0, No Iterations 0
DILUPBiCG:  Solving for Ux, Initial residual = 0.2861774463798876, Final residual = 6.980496540838007e-21, No Iterations 2
DILUPBiCG:  Solving for Uy, Initial residual = 0.2861774464129252, Final residual = 1.085055920239094e-20, No Iterations 2
DILUPBiCG:  Solving for Uz, Initial residual = 0.1060780689587563, Final residual = 4.988372332447084e-21, No Iterations 2
DILUPBiCG:  Solving for e, Initial residual = 0.1060690379040484, Final residual = 1.972876594672132e-20, No Iterations 2
DILUPBiCG:  Solving for p, Initial residual = 0.1060760678887895, Final residual = 6.544500727451953e-11, No Iterations 1
pEqnloop: 0
diagonal:  Solving for rho, Initial residual = 0, Final residual = 0, No Iterations 0
time step continuity errors : sum local = 3.528360159575638e-16, global = -3.492447546650092e-16, cumulative = -3.201244932609954e-15
DILUPBiCG:  Solving for p, Initial residual = 3.573677316314004e-08, Final residual = 5.982834557933284e-14, No Iterations 1
pEqnloop: 1
diagonal:  Solving for rho, Initial residual = 0, Final residual = 0, No Iterations 0
time step continuity errors : sum local = 3.786690270664309e-16, global = -3.77923081832859e-16, cumulative = -3.579168014442813e-15
DILUPBiCG:  Solving for k, Initial residual = 0.3755564138292281, Final residual = 1.779002356451339e-20, No Iterations 2
ExecutionTime = 20.02 s  ClockTime = 23 s

Courant Number mean: 8.573577152541714e-11 max: 4.323015923841612e-05
deltaT = 2.48832e-09
Time = 8.92992e-09

PIMPLE: iteration 1
diagonal:  Solving for rho, Initial residual = 0, Final residual = 0, No Iterations 0
DILUPBiCG:  Solving for Ux, Initial residual = 0.2580115701006959, Final residual = 9.404811632390567e-21, No Iterations 2
DILUPBiCG:  Solving for Uy, Initial residual = 0.2580115702413756, Final residual = 1.448728560985107e-20, No Iterations 2
DILUPBiCG:  Solving for Uz, Initial residual = 0.08805286406051967, Final residual = 6.278481664881264e-21, No Iterations 2
DILUPBiCG:  Solving for e, Initial residual = 0.08804227220651428, Final residual = 2.450173850221805e-20, No Iterations 2
DILUPBiCG:  Solving for p, Initial residual = 0.08805033432434407, Final residual = 7.825911290114725e-11, No Iterations 1
pEqnloop: 0
diagonal:  Solving for rho, Initial residual = 0, Final residual = 0, No Iterations 0
time step continuity errors : sum local = 1.232339148118996e-16, global = -4.650978199736606e-17, cumulative = -3.625677796440179e-15
DILUPBiCG:  Solving for p, Initial residual = 2.007434530834896e-08, Final residual = 2.168539473304032e-14, No Iterations 1
pEqnloop: 1
diagonal:  Solving for rho, Initial residual = 0, Final residual = 0, No Iterations 0
time step continuity errors : sum local = 1.128800027573537e-16, global = -2.793248155205016e-17, cumulative = -3.653610277992229e-15
DILUPBiCG:  Solving for k, Initial residual = 0.2906877194128914, Final residual = 2.099826969402636e-20, No Iterations 2
ExecutionTime = 26.8 s  ClockTime = 31 s

Courant Number mean: 1.0288402122263e-10 max: 5.187377896431865e-05
deltaT = 2.985983999999999e-09
Time = 1.19159e-08

PIMPLE: iteration 1
diagonal:  Solving for rho, Initial residual = 0, Final residual = 0, No Iterations 0
DILUPBiCG:  Solving for Ux, Initial residual = 0.2369027228889513, Final residual = 1.307203146769504e-20, No Iterations 2
DILUPBiCG:  Solving for Uy, Initial residual = 0.2369027230042267, Final residual = 1.989703511017953e-20, No Iterations 2
DILUPBiCG:  Solving for Uz, Initial residual = 0.07712864145512982, Final residual = 8.479169741833857e-21, No Iterations 2
DILUPBiCG:  Solving for e, Initial residual = 0.07711582192772418, Final residual = 3.254076154559046e-20, No Iterations 2
DILUPBiCG:  Solving for p, Initial residual = 0.07712531338232348, Final residual = 9.876443117645874e-11, No Iterations 1
pEqnloop: 0
diagonal:  Solving for rho, Initial residual = 0, Final residual = 0, No Iterations 0
time step continuity errors : sum local = 3.643976043336071e-16, global = 3.636469709380124e-16, cumulative = -3.289963307054216e-15
DILUPBiCG:  Solving for p, Initial residual = 1.30960362094006e-08, Final residual = 1.646510105680216e-14, No Iterations 1
pEqnloop: 1
diagonal:  Solving for rho, Initial residual = 0, Final residual = 0, No Iterations 0
time step continuity errors : sum local = 3.770975900337276e-16, global = 3.71636197337271e-16, cumulative = -2.918327109716946e-15
DILUPBiCG:  Solving for k, Initial residual = 0.2385158222499429, Final residual = 2.679487922295841e-20, No Iterations 2
ExecutionTime = 32.85 s  ClockTime = 38 s

Courant Number mean: 1.234624193973297e-10 max: 6.224506732903099e-05
deltaT = 3.583180799999999e-09
Time = 1.54991e-08

PIMPLE: iteration 1
diagonal:  Solving for rho, Initial residual = 0, Final residual = 0, No Iterations 0
DILUPBiCG:  Solving for Ux, Initial residual = 0.2210519479820906, Final residual = 1.872604660549738e-20, No Iterations 2
DILUPBiCG:  Solving for Uy, Initial residual = 0.2210519479576951, Final residual = 2.808100190264619e-20, No Iterations 2
DILUPBiCG:  Solving for Uz, Initial residual = 0.06989951241241034, Final residual = 1.205509783675777e-20, No Iterations 2
DILUPBiCG:  Solving for e, Initial residual = 0.06988416966321692, Final residual = 4.536966670096974e-20, No Iterations 2
DILUPBiCG:  Solving for p, Initial residual = 0.06989548951077754, Final residual = 1.289775409472994e-10, No Iterations 1
pEqnloop: 0
diagonal:  Solving for rho, Initial residual = 0, Final residual = 0, No Iterations 0
time step continuity errors : sum local = 3.220342381489501e-16, global = 3.216638850431597e-16, cumulative = -2.596663224673786e-15
DILUPBiCG:  Solving for p, Initial residual = 1.016695510984822e-08, Final residual = 1.2609759850917e-14, No Iterations 1
pEqnloop: 1
diagonal:  Solving for rho, Initial residual = 0, Final residual = 0, No Iterations 0
time step continuity errors : sum local = 3.146124610636184e-16, global = 3.135296244836354e-16, cumulative = -2.28313360019015e-15
DILUPBiCG:  Solving for k, Initial residual = 0.2042783053775517, Final residual = 3.645586061857453e-20, No Iterations 2
ExecutionTime = 38.13 s  ClockTime = 45 s

Courant Number mean: 1.481572278479725e-10 max: 7.468909815230526e-05
deltaT = 4.299816959999999e-09
Time = 1.97989e-08

PIMPLE: iteration 1
diagonal:  Solving for rho, Initial residual = 0, Final residual = 0, No Iterations 0
DILUPBiCG:  Solving for Ux, Initial residual = 0.2090173761278931, Final residual = 2.760692964878029e-20, No Iterations 2
DILUPBiCG:  Solving for Uy, Initial residual = 0.2090173760392551, Final residual = 4.066539859471939e-20, No Iterations 2
DILUPBiCG:  Solving for Uz, Initial residual = 0.06483314997462, Final residual = 1.785970883934976e-20, No Iterations 2
DILUPBiCG:  Solving for e, Initial residual = 0.06481486871917021, Final residual = 6.57868881234202e-20, No Iterations 2
DILUPBiCG:  Solving for p, Initial residual = 0.06482828646128132, Final residual = 1.724100723241047e-10, No Iterations 1
pEqnloop: 0
diagonal:  Solving for rho, Initial residual = 0, Final residual = 0, No Iterations 0
time step continuity errors : sum local = 1.388067652628833e-16, global = -6.819441397386447e-17, cumulative = -2.351328014164015e-15
DILUPBiCG:  Solving for p, Initial residual = 8.761964687400502e-09, Final residual = 1.209609985267329e-14, No Iterations 1
pEqnloop: 1
diagonal:  Solving for rho, Initial residual = 0, Final residual = 0, No Iterations 0
time step continuity errors : sum local = 1.372575913136134e-16, global = -8.66127212364105e-17, cumulative = -2.437940735400425e-15
DILUPBiCG:  Solving for k, Initial residual = 0.1805909976031355, Final residual = 5.239451483985178e-20, No Iterations 2
ExecutionTime = 42.67 s  ClockTime = 51 s

Courant Number mean: 1.777920721972997e-10 max: 8.961976116517041e-05
deltaT = 5.159780351999998e-09
Time = 2.49587e-08

PIMPLE: iteration 1
diagonal:  Solving for rho, Initial residual = 0, Final residual = 0, No Iterations 0
DILUPBiCG:  Solving for Ux, Initial residual = 0.1997579947724391, Final residual = 4.183486585878893e-20, No Iterations 2
DILUPBiCG:  Solving for Uy, Initial residual = 0.199757994631092, Final residual = 6.03614696762499e-20, No Iterations 2
DILUPBiCG:  Solving for Uz, Initial residual = 0.06113782169733483, Final residual = 2.740537666359163e-20, No Iterations 2
DILUPBiCG:  Solving for e, Initial residual = 0.06111597830143795, Final residual = 9.872057392354033e-20, No Iterations 2
DILUPBiCG:  Solving for p, Initial residual = 0.06113200394875262, Final residual = 2.343601692795898e-10, No Iterations 1
pEqnloop: 0
diagonal:  Solving for rho, Initial residual = 0, Final residual = 0, No Iterations 0
time step continuity errors : sum local = 2.841167323960766e-16, global = -2.769705665209926e-16, cumulative = -2.714911301921418e-15
DILUPBiCG:  Solving for p, Initial residual = 5.959654196621271e-09, Final residual = 9.060708763696749e-15, No Iterations 1
pEqnloop: 1
diagonal:  Solving for rho, Initial residual = 0, Final residual = 0, No Iterations 0
time step continuity errors : sum local = 2.801923888941828e-16, global = -2.759276848054925e-16, cumulative = -2.99083898672691e-15
DILUPBiCG:  Solving for k, Initial residual = 0.1635155365048806, Final residual = 7.907832557939762e-20, No Iterations 2
ExecutionTime = 47.15 s  ClockTime = 57 s

Courant Number mean: 2.133554705010925e-10 max: 0.000107533439730967
deltaT = 6.191736422399998e-09
Time = 3.11504e-08

PIMPLE: iteration 1
diagonal:  Solving for rho, Initial residual = 0, Final residual = 0, No Iterations 0
DILUPBiCG:  Solving for Ux, Initial residual = 0.1925420161858329, Final residual = 6.510730169379154e-20, No Iterations 2
DILUPBiCG:  Solving for Uy, Initial residual = 0.1925420160674236, Final residual = 9.237394805608186e-20, No Iterations 2
DILUPBiCG:  Solving for Uz, Initial residual = 0.05836292826112111, Final residual = 4.338344819407653e-20, No Iterations 2
DILUPBiCG:  Solving for e, Initial residual = 0.05833681304223552, Final residual = 1.52924415642328e-19, No Iterations 2
DILUPBiCG:  Solving for p, Initial residual = 0.05835595461221699, Final residual = 3.225641502809863e-10, No Iterations 1
pEqnloop: 0
diagonal:  Solving for rho, Initial residual = 0, Final residual = 0, No Iterations 0
time step continuity errors : sum local = 5.175419648368128e-16, global = -5.04234088585592e-16, cumulative = -3.495073075312502e-15
DILUPBiCG:  Solving for p, Initial residual = 4.023542339205663e-09, Final residual = 7.183805863043601e-15, No Iterations 1
pEqnloop: 1
diagonal:  Solving for rho, Initial residual = 0, Final residual = 0, No Iterations 0
time step continuity errors : sum local = 5.24037378612666e-16, global = -5.212916742890532e-16, cumulative = -4.016364749601555e-15
DILUPBiCG:  Solving for k, Initial residual = 0.1508058226570675, Final residual = 1.248759965421005e-19, No Iterations 2
ExecutionTime = 50.99 s  ClockTime = 61 s

Courant Number mean: 2.560338970671625e-10 max: 0.0001290253889150599
deltaT = 7.430083706879997e-09
Time = 3.85805e-08

PIMPLE: iteration 1
diagonal:  Solving for rho, Initial residual = 0, Final residual = 0, No Iterations 0
DILUPBiCG:  Solving for Ux, Initial residual = 0.1868538216683577, Final residual = 1.04066643751818e-19, No Iterations 2
DILUPBiCG:  Solving for Uy, Initial residual = 0.186853821573418, Final residual = 1.476919330073501e-19, No Iterations 2
DILUPBiCG:  Solving for Uz, Initial residual = 0.05623297147347273, Final residual = 7.063792093102857e-20, No Iterations 2
DILUPBiCG:  Solving for e, Initial residual = 0.05620172222019867, Final residual = 2.442588252420984e-19, No Iterations 2
DILUPBiCG:  Solving for p, Initial residual = 0.05622463846722226, Final residual = 4.482185323152497e-10, No Iterations 1
pEqnloop: 0
diagonal:  Solving for rho, Initial residual = 0, Final residual = 0, No Iterations 0
time step continuity errors : sum local = 2.542034316781468e-16, global = 2.300221481362528e-16, cumulative = -3.786342601465302e-15
DILUPBiCG:  Solving for p, Initial residual = 5.122918986289343e-09, Final residual = 1.057588156772552e-14, No Iterations 1
pEqnloop: 1
diagonal:  Solving for rho, Initial residual = 0, Final residual = 0, No Iterations 0
time step continuity errors : sum local = 2.030185967208922e-16, global = 1.705244395096341e-16, cumulative = -3.615818161955668e-15
DILUPBiCG:  Solving for k, Initial residual = 0.141103770890309, Final residual = 2.058183644955114e-19, No Iterations 2
ExecutionTime = 56.76 s  ClockTime = 67 s

Courant Number mean: 3.07251504921001e-10 max: 0.0001548093385833505
deltaT = 8.916100448255996e-09
Time = 4.74966e-08

PIMPLE: iteration 1
diagonal:  Solving for rho, Initial residual = 0, Final residual = 0, No Iterations 0
DILUPBiCG:  Solving for Ux, Initial residual = 0.1823252198198438, Final residual = 1.745923741569228e-19, No Iterations 2
DILUPBiCG:  Solving for Uy, Initial residual = 0.1823252197051589, Final residual = 2.438007497454949e-19, No Iterations 2
DILUPBiCG:  Solving for Uz, Initial residual = 0.05456992971923161, Final residual = 1.179860579036096e-19, No Iterations 2
DILUPBiCG:  Solving for e, Initial residual = 0.05453252243615024, Final residual = 4.021292049265252e-19, No Iterations 2
DILUPBiCG:  Solving for p, Initial residual = 0.05455995646876562, Final residual = 6.274913760441735e-10, No Iterations 1
pEqnloop: 0
diagonal:  Solving for rho, Initial residual = 0, Final residual = 0, No Iterations 0
time step continuity errors : sum local = 1.547487203527271e-16, global = -6.102602606640582e-17, cumulative = -3.676844188022074e-15
DILUPBiCG:  Solving for p, Initial residual = 4.849153105413853e-09, Final residual = 1.175961357503981e-14, No Iterations 1
pEqnloop: 1
diagonal:  Solving for rho, Initial residual = 0, Final residual = 0, No Iterations 0
time step continuity errors : sum local = 1.54015626546681e-16, global = -1.100825993672377e-16, cumulative = -3.786926787389312e-15
DILUPBiCG:  Solving for k, Initial residual = 0.1335467959425938, Final residual = 3.53400340717203e-19, No Iterations 2
ExecutionTime = 62.54 s  ClockTime = 75 s

Courant Number mean: 3.687178649878435e-10 max: 0.000185740947167246
deltaT = 1.069932053790719e-08
Time = 5.81959e-08

PIMPLE: iteration 1
diagonal:  Solving for rho, Initial residual = 0, Final residual = 0, No Iterations 0
DILUPBiCG:  Solving for Ux, Initial residual = 0.1786887647821636, Final residual = 3.16810519766324e-19, No Iterations 2
DILUPBiCG:  Solving for Uy, Initial residual = 0.1786887646900653, Final residual = 4.158107877946508e-19, No Iterations 2
DILUPBiCG:  Solving for Uz, Initial residual = 0.05325359145763221, Final residual = 2.016152618916043e-19, No Iterations 2
DILUPBiCG:  Solving for e, Initial residual = 0.05320880561460283, Final residual = 6.823703301795595e-19, No Iterations 2
DILUPBiCG:  Solving for p, Initial residual = 0.0532416564032046, Final residual = 8.837310856597948e-10, No Iterations 1
pEqnloop: 0
diagonal:  Solving for rho, Initial residual = 0, Final residual = 0, No Iterations 0
time step continuity errors : sum local = 1.744735479417065e-16, global = -7.295820201650853e-17, cumulative = -3.85988498940582e-15
DILUPBiCG:  Solving for p, Initial residual = 3.508910704877242e-09, Final residual = 1.007280259001551e-14, No Iterations 1
pEqnloop: 1
diagonal:  Solving for rho, Initial residual = 0, Final residual = 0, No Iterations 0
time step continuity errors : sum local = 1.526452296766727e-16, global = -1.227072813137938e-16, cumulative = -3.982592270719614e-15
DILUPBiCG:  Solving for k, Initial residual = 0.1275639042356968, Final residual = 6.310823614635602e-19, No Iterations 2
ExecutionTime = 67.54000000000001 s  ClockTime = 81 s

Courant Number mean: 4.424853672504201e-10 max: 0.0002228458487620229
deltaT = 1.283918464548863e-08
Time = 7.10351e-08

PIMPLE: iteration 1
diagonal:  Solving for rho, Initial residual = 0, Final residual = 0, No Iterations 0
DILUPBiCG:  Solving for Ux, Initial residual = 0.1757467246656398, Final residual = 5.935733163485181e-19, No Iterations 2
DILUPBiCG:  Solving for Uy, Initial residual = 0.1757467246171147, Final residual = 7.379870980676668e-19, No Iterations 2
DILUPBiCG:  Solving for Uz, Initial residual = 0.0521998172503605, Final residual = 3.513673112983789e-19, No Iterations 2
DILUPBiCG:  Solving for e, Initial residual = 0.05214614961223395, Final residual = 1.193571945383708e-18, No Iterations 2
DILUPBiCG:  Solving for p, Initial residual = 0.05218555316946306, Final residual = 1.250688002972691e-09, No Iterations 1
pEqnloop: 0
diagonal:  Solving for rho, Initial residual = 0, Final residual = 0, No Iterations 0
time step continuity errors : sum local = 4.823844199616877e-16, global = -3.880088758115715e-16, cumulative = -4.370601146531186e-15
DILUPBiCG:  Solving for p, Initial residual = 3.100735725832768e-09, Final residual = 1.059239158262419e-14, No Iterations 1
pEqnloop: 1
diagonal:  Solving for rho, Initial residual = 0, Final residual = 0, No Iterations 0
time step continuity errors : sum local = 4.290034096354464e-16, global = -4.289572546772546e-16, cumulative = -4.79955840120844e-15
DILUPBiCG:  Solving for k, Initial residual = 0.122763679307912, Final residual = 1.169882921778382e-18, No Iterations 2
ExecutionTime = 73.84999999999999 s  ClockTime = 88 s

Courant Number mean: 5.310182840470928e-10 max: 0.0002673531757326267
deltaT = 1.540702157458636e-08
Time = 8.64421e-08

PIMPLE: iteration 1
diagonal:  Solving for rho, Initial residual = 0, Final residual = 0, No Iterations 0
DILUPBiCG:  Solving for Ux, Initial residual = 0.1733503985743564, Final residual = 1.1575062648654e-18, No Iterations 2
DILUPBiCG:  Solving for Uy, Initial residual = 0.1733503985687896, Final residual = 1.366575641659558e-18, No Iterations 2
DILUPBiCG:  Solving for Uz, Initial residual = 0.05134793187296811, Final residual = 6.221386731256894e-19, No Iterations 2
DILUPBiCG:  Solving for e, Initial residual = 0.05128367472915651, Final residual = 2.151991572598306e-18, No Iterations 2
DILUPBiCG:  Solving for p, Initial residual = 0.05133091617703047, Final residual = 1.777214579227982e-09, No Iterations 1
pEqnloop: 0
diagonal:  Solving for rho, Initial residual = 0, Final residual = 0, No Iterations 0
time step continuity errors : sum local = 3.227163111371115e-16, global = 3.082073160376148e-16, cumulative = -4.491351085170825e-15
DILUPBiCG:  Solving for p, Initial residual = 3.577153852102116e-09, Final residual = 1.459043299370938e-14, No Iterations 1
pEqnloop: 1
diagonal:  Solving for rho, Initial residual = 0, Final residual = 0, No Iterations 0
time step continuity errors : sum local = 2.418171241313819e-16, global = 2.340366733703009e-16, cumulative = -4.257314411800524e-15
DILUPBiCG:  Solving for k, Initial residual = 0.1188696863737038, Final residual = 2.246548056928452e-18, No Iterations 2
ExecutionTime = 79.81999999999999 s  ClockTime = 95 s

Courant Number mean: 6.372759377261587e-10 max: 0.0003207356037221301
deltaT = 1.848842588950363e-08
Time = 1.04931e-07

PIMPLE: iteration 1
diagonal:  Solving for rho, Initial residual = 0, Final residual = 0, No Iterations 0
DILUPBiCG:  Solving for Ux, Initial residual = 0.1713861774411475, Final residual = 2.359081580403568e-18, No Iterations 2
DILUPBiCG:  Solving for Uy, Initial residual = 0.1713861774561037, Final residual = 2.678407041061695e-18, No Iterations 2
DILUPBiCG:  Solving for Uz, Initial residual = 0.05065305861556723, Final residual = 1.113360181770859e-18, No Iterations 2
DILUPBiCG:  Solving for e, Initial residual = 0.05057613458297659, Final residual = 3.998214439358749e-18, No Iterations 2
DILUPBiCG:  Solving for p, Initial residual = 0.0506327808776384, Final residual = 2.534141401120925e-09, No Iterations 1
pEqnloop: 0
diagonal:  Solving for rho, Initial residual = 0, Final residual = 0, No Iterations 0
time step continuity errors : sum local = 4.297058943959816e-16, global = 4.275512149926687e-16, cumulative = -3.829763196807856e-15
DILUPBiCG:  Solving for p, Initial residual = 4.065881202663237e-09, Final residual = 1.992066334808612e-14, No Iterations 1
pEqnloop: 1
diagonal:  Solving for rho, Initial residual = 0, Final residual = 0, No Iterations 0
time step continuity errors : sum local = 2.811508408066422e-16, global = 2.77050949092596e-16, cumulative = -3.55271224771526e-15
DILUPBiCG:  Solving for k, Initial residual = 0.1156816090479355, Final residual = 4.458092847304249e-18, No Iterations 2
ExecutionTime = 87.69 s  ClockTime = 103 s

Courant Number mean: 7.648129722835579e-10 max: 0.0003847571616184501
deltaT = 2.218611106740435e-08
Time = 1.27117e-07

PIMPLE: iteration 1
diagonal:  Solving for rho, Initial residual = 0, Final residual = 0, No Iterations 0
DILUPBiCG:  Solving for Ux, Initial residual = 0.1697659847193882, Final residual = 4.929228587838605e-18, No Iterations 2
DILUPBiCG:  Solving for Uy, Initial residual = 0.1697659847333756, Final residual = 5.42588660970236e-18, No Iterations 2
DILUPBiCG:  Solving for Uz, Initial residual = 0.05008126763548831, Final residual = 1.999330498938345e-18, No Iterations 2
DILUPBiCG:  Solving for e, Initial residual = 0.0499891922318574, Final residual = 7.649277340414182e-18, No Iterations 2
DILUPBiCG:  Solving for p, Initial residual = 0.05005712947235915, Final residual = 3.624357946798781e-09, No Iterations 1
pEqnloop: 0
diagonal:  Solving for rho, Initial residual = 0, Final residual = 0, No Iterations 0
time step continuity errors : sum local = 4.912633341913678e-16, global = 1.672523588148141e-17, cumulative = -3.535987011833778e-15
DILUPBiCG:  Solving for p, Initial residual = 4.804275156162732e-09, Final residual = 2.842995011788451e-14, No Iterations 1
pEqnloop: 1
diagonal:  Solving for rho, Initial residual = 0, Final residual = 0, No Iterations 0
time step continuity errors : sum local = 2.49136036193625e-16, global = -2.305154173102027e-16, cumulative = -3.766502429143981e-15
DILUPBiCG:  Solving for k, Initial residual = 0.1130510224535482, Final residual = 9.117350061023876e-18, No Iterations 2
ExecutionTime = 90.78 s  ClockTime = 109 s

Courant Number mean: 9.179004421128935e-10 max: 0.0004615302830703825
deltaT = 2.662333328088522e-08
Time = 1.5374e-07

PIMPLE: iteration 1
diagonal:  Solving for rho, Initial residual = 0, Final residual = 0, No Iterations 0
DILUPBiCG:  Solving for Ux, Initial residual = 0.1684205943483793, Final residual = 1.168643334842656e-17, No Iterations 2
DILUPBiCG:  Solving for Uy, Initial residual = 0.1684205943616419, Final residual = 1.21399393451292e-17, No Iterations 2
DILUPBiCG:  Solving for Uz, Initial residual = 0.04960639577128586, Final residual = 3.56404712178672e-18, No Iterations 2
DILUPBiCG:  Solving for e, Initial residual = 0.04949620271296135, Final residual = 1.505359752968262e-17, No Iterations 2
DILUPBiCG:  Solving for p, Initial residual = 0.04957770380194884, Final residual = 5.197644628801205e-09, No Iterations 1
pEqnloop: 0
diagonal:  Solving for rho, Initial residual = 0, Final residual = 0, No Iterations 0
time step continuity errors : sum local = 1.01776597069793e-15, global = -1.646988629453063e-16, cumulative = -3.931201292089287e-15
DILUPBiCG:  Solving for p, Initial residual = 6.334919195354655e-09, Final residual = 4.541751657277552e-14, No Iterations 1
pEqnloop: 1
diagonal:  Solving for rho, Initial residual = 0, Final residual = 0, No Iterations 0
time step continuity errors : sum local = 5.879477789673253e-16, global = -5.850258349301539e-16, cumulative = -4.516227127019441e-15
DILUPBiCG:  Solving for k, Initial residual = 0.1108658386651082, Final residual = 1.91613534372505e-17, No Iterations 2
ExecutionTime = 96.97 s  ClockTime = 117 s

Courant Number mean: 1.101672360568219e-09 max: 0.0005535838593398188
deltaT = 3.194799993706226e-08
Time = 1.85688e-07

PIMPLE: iteration 1
diagonal:  Solving for rho, Initial residual = 0, Final residual = 0, No Iterations 0
DILUPBiCG:  Solving for Ux, Initial residual = 0.1672948891595308, Final residual = 3.279640279202371e-17, No Iterations 2
DILUPBiCG:  Solving for Uy, Initial residual = 0.1672948891682248, Final residual = 3.351768829758652e-17, No Iterations 2
DILUPBiCG:  Solving for Uz, Initial residual = 0.04920787829662591, Final residual = 6.194281610233203e-18, No Iterations 2
DILUPBiCG:  Solving for e, Initial residual = 0.04907605867721147, Final residual = 3.042933925956607e-17, No Iterations 2
DILUPBiCG:  Solving for p, Initial residual = 0.04917384493356398, Final residual = 7.472570297878911e-09, No Iterations 1
pEqnloop: 0
diagonal:  Solving for rho, Initial residual = 0, Final residual = 0, No Iterations 0
time step continuity errors : sum local = 8.673756463809138e-16, global = 7.080793224704125e-16, cumulative = -3.808147804549029e-15
DILUPBiCG:  Solving for p, Initial residual = 7.981365671623034e-09, Final residual = 6.979614116393357e-14, No Iterations 1
pEqnloop: 1
diagonal:  Solving for rho, Initial residual = 0, Final residual = 0, No Iterations 0
time step continuity errors : sum local = 1.149852086638239e-16, global = -4.740082516299453e-17, cumulative = -3.855548629712024e-15
DILUPBiCG:  Solving for k, Initial residual = 0.1090398957000955, Final residual = 4.126195647566335e-17, No Iterations 2
ExecutionTime = 105.39 s  ClockTime = 126 s

Courant Number mean: 1.322303588062203e-09 max: 0.0006639444024474681
deltaT = 3.833759992447472e-08
Time = 2.24026e-07

PIMPLE: iteration 1
diagonal:  Solving for rho, Initial residual = 0, Final residual = 0, No Iterations 0
DILUPBiCG:  Solving for Ux, Initial residual = 0.1663444151208404, Final residual = 1.112589508740511e-16, No Iterations 2
DILUPBiCG:  Solving for Uy, Initial residual = 0.1663444151250519, Final residual = 1.124016244027736e-16, No Iterations 2
DILUPBiCG:  Solving for Uz, Initial residual = 0.04886928998839603, Final residual = 1.013685211835369e-17, No Iterations 2
DILUPBiCG:  Solving for e, Initial residual = 0.04871167197106292, Final residual = 6.306759616025739e-17, No Iterations 2
DILUPBiCG:  Solving for p, Initial residual = 0.04882900386321534, Final residual = 1.076895422349503e-08, No Iterations 1
pEqnloop: 0
diagonal:  Solving for rho, Initial residual = 0, Final residual = 0, No Iterations 0
time step continuity errors : sum local = 1.420736080055876e-15, global = 1.38676868006788e-15, cumulative = -2.468779949644144e-15
DILUPBiCG:  Solving for p, Initial residual = 1.101082923020344e-08, Final residual = 1.177760985467244e-13, No Iterations 1
pEqnloop: 1
diagonal:  Solving for rho, Initial residual = 0, Final residual = 0, No Iterations 0
time step continuity errors : sum local = 1.355386391359343e-16, global = 8.051245957926777e-17, cumulative = -2.388267490064876e-15
DILUPBiCG:  Solving for k, Initial residual = 0.1075059387717869, Final residual = 9.078041487630039e-17, No Iterations 2
ExecutionTime = 109.24 s  ClockTime = 135 s

Courant Number mean: 1.587226623914051e-09 max: 0.0007962328698137064
deltaT = 4.600511990936966e-08
Time = 2.70031e-07

PIMPLE: iteration 1
diagonal:  Solving for rho, Initial residual = 0, Final residual = 0, No Iterations 0
DILUPBiCG:  Solving for Ux, Initial residual = 0.1655328481747768, Final residual = 1.933786017201235e-15, No Iterations 2
DILUPBiCG:  Solving for Uy, Initial residual = 0.1655328481781138, Final residual = 1.908699139546827e-15, No Iterations 2
DILUPBiCG:  Solving for Uz, Initial residual = 0.04857727214031473, Final residual = 1.432503834871399e-17, No Iterations 2
DILUPBiCG:  Solving for e, Initial residual = 0.04838891054913198, Final residual = 1.337541027000456e-16, No Iterations 2
DILUPBiCG:  Solving for p, Initial residual = 0.04852970949724546, Final residual = 1.55562261980461e-08, No Iterations 1
pEqnloop: 0
diagonal:  Solving for rho, Initial residual = 0, Final residual = 0, No Iterations 0
time step continuity errors : sum local = 2.495433191042104e-15, global = 1.976171331359725e-15, cumulative = -4.120961587051511e-16
DILUPBiCG:  Solving for p, Initial residual = 1.576939621161793e-08, Final residual = 2.070605409163626e-13, No Iterations 1
pEqnloop: 1
diagonal:  Solving for rho, Initial residual = 0, Final residual = 0, No Iterations 0
time step continuity errors : sum local = 2.62511131624367e-16, global = -2.545893914913377e-16, cumulative = -6.666855501964889e-16
DILUPBiCG:  Solving for k, Initial residual = 0.1062108298582925, Final residual = 2.035025848715229e-16, No Iterations 2
ExecutionTime = 117.12 s  ClockTime = 144 s

Courant Number mean: 1.905397217523977e-09 max: 0.0009547802819188065
deltaT = 5.520614389124359e-08
Time = 3.25237e-07

PIMPLE: iteration 1
diagonal:  Solving for rho, Initial residual = 0, Final residual = 0, No Iterations 0
DILUPBiCG:  Solving for Ux, Initial residual = 0.1648300893974265, Final residual = 1.946964082829363e-16, No Iterations 2
DILUPBiCG:  Solving for Uy, Initial residual = 0.1648300893976127, Final residual = 1.904068071259773e-16, No Iterations 2
DILUPBiCG:  Solving for Uz, Initial residual = 0.04832074018449168, Final residual = 1.196557620694637e-17, No Iterations 2
DILUPBiCG:  Solving for e, Initial residual = 0.04809575553774856, Final residual = 2.896387279427214e-16, No Iterations 2
DILUPBiCG:  Solving for p, Initial residual = 0.04826475278978955, Final residual = 2.25257982745016e-08, No Iterations 1
pEqnloop: 0
diagonal:  Solving for rho, Initial residual = 0, Final residual = 0, No Iterations 0
time step continuity errors : sum local = 4.109474325042846e-15, global = 4.073073241719969e-15, cumulative = 3.40638769152348e-15
DILUPBiCG:  Solving for p, Initial residual = 2.283629511200694e-08, Final residual = 3.698965365155993e-13, No Iterations 1
pEqnloop: 1
diagonal:  Solving for rho, Initial residual = 0, Final residual = 0, No Iterations 0
time step continuity errors : sum local = 2.689526243181332e-16, global = 2.150312458144112e-16, cumulative = 3.621418937337892e-15
DILUPBiCG:  Solving for k, Initial residual = 0.1051120051467925, Final residual = 4.636499770007952e-16, No Iterations 2
ExecutionTime = 121.32 s  ClockTime = 151 s

Courant Number mean: 2.287622078252672e-09 max: 0.001144766058994377
deltaT = 6.62473726694923e-08
Time = 3.91484e-07

PIMPLE: iteration 1
diagonal:  Solving for rho, Initial residual = 0, Final residual = 0, No Iterations 0
DILUPBiCG:  Solving for Ux, Initial residual = 0.1642108139480944, Final residual = 2.547606571014462e-16, No Iterations 2
DILUPBiCG:  Solving for Uy, Initial residual = 0.1642108139464201, Final residual = 2.597996479052187e-16, No Iterations 2
DILUPBiCG:  Solving for Uz, Initial residual = 0.04809030569410217, Final residual = 2.967386206844086e-17, No Iterations 2
DILUPBiCG:  Solving for e, Initial residual = 0.0478217975800004, Final residual = 6.389866125621632e-16, No Iterations 2
DILUPBiCG:  Solving for p, Initial residual = 0.04802468061298264, Final residual = 3.270001216565793e-08, No Iterations 1
pEqnloop: 0
diagonal:  Solving for rho, Initial residual = 0, Final residual = 0, No Iterations 0
time step continuity errors : sum local = 7.013630521678861e-15, global = 6.996759525339559e-15, cumulative = 1.061817846267745e-14
DILUPBiCG:  Solving for p, Initial residual = 3.346970472515624e-08, Final residual = 6.720291809953885e-13, No Iterations 1
pEqnloop: 1
diagonal:  Solving for rho, Initial residual = 0, Final residual = 0, No Iterations 0
time step continuity errors : sum local = 2.312455642344864e-16, global = 2.18674315867278e-16, cumulative = 1.083685277854473e-14
DILUPBiCG:  Solving for k, Initial residual = 0.104175009900499, Final residual = 1.071188767598897e-15, No Iterations 2
ExecutionTime = 126.06 s  ClockTime = 157 s

Courant Number mean: 2.74696689037465e-09 max: 0.001372384141132096
deltaT = 7.949684720339076e-08
Time = 4.70981e-07

PIMPLE: iteration 1
diagonal:  Solving for rho, Initial residual = 0, Final residual = 0, No Iterations 0
DILUPBiCG:  Solving for Ux, Initial residual = 0.1636533488486719, Final residual = 1.425471516814637e-15, No Iterations 2
DILUPBiCG:  Solving for Uy, Initial residual = 0.1636533488451136, Final residual = 1.43322909260432e-15, No Iterations 2
DILUPBiCG:  Solving for Uz, Initial residual = 0.04787783833704148, Final residual = 2.017376136776844e-16, No Iterations 2
DILUPBiCG:  Solving for e, Initial residual = 0.04755770308366489, Final residual = 1.433038020605353e-15, No Iterations 2
DILUPBiCG:  Solving for p, Initial residual = 0.04780129784313763, Final residual = 4.759701326063339e-08, No Iterations 1
pEqnloop: 0
diagonal:  Solving for rho, Initial residual = 0, Final residual = 0, No Iterations 0
time step continuity errors : sum local = 1.204947349662143e-14, global = 1.201862269378127e-14, cumulative = 2.2855475472326e-14
DILUPBiCG:  Solving for p, Initial residual = 4.961017347801944e-08, Final residual = 4.738814208667478e-19, No Iterations 2
pEqnloop: 1
diagonal:  Solving for rho, Initial residual = 0, Final residual = 0, No Iterations 0
time step continuity errors : sum local = 1.463383805302493e-16, global = 1.227140397995099e-16, cumulative = 2.297818951212551e-14
DILUPBiCG:  Solving for k, Initial residual = 0.1033716719611472, Final residual = 2.504502195962838e-15, No Iterations 2
ExecutionTime = 132.69 s  ClockTime = 165 s

Courant Number mean: 3.299270210822092e-09 max: 0.001645043660236682
deltaT = 9.53962166440689e-08
Time = 5.66377e-07

PIMPLE: iteration 1
diagonal:  Solving for rho, Initial residual = 0, Final residual = 0, No Iterations 0
DILUPBiCG:  Solving for Ux, Initial residual = 0.1631388013872096, Final residual = 5.196902502551623e-15, No Iterations 2
DILUPBiCG:  Solving for Uy, Initial residual = 0.1631388013836978, Final residual = 5.210383933438392e-15, No Iterations 2
DILUPBiCG:  Solving for Uz, Initial residual = 0.04767612719605412, Final residual = 8.279449048809696e-16, No Iterations 2
DILUPBiCG:  Solving for e, Initial residual = 0.04729490950093906, Final residual = 3.260125839392186e-15, No Iterations 2
DILUPBiCG:  Solving for p, Initial residual = 0.04758739303885895, Final residual = 6.94818420546647e-08, No Iterations 1
pEqnloop: 0
diagonal:  Solving for rho, Initial residual = 0, Final residual = 0, No Iterations 0
time step continuity errors : sum local = 2.132438884418217e-14, global = 2.13088386674484e-14, cumulative = 4.428702817957391e-14
DILUPBiCG:  Solving for p, Initial residual = 7.386018419249375e-08, Final residual = 1.543571655582143e-18, No Iterations 2
pEqnloop: 1
diagonal:  Solving for rho, Initial residual = 0, Final residual = 0, No Iterations 0
time step continuity errors : sum local = 5.059075702096897e-16, global = 4.976223101781784e-16, cumulative = 4.478465048975209e-14
DILUPBiCG:  Solving for k, Initial residual = 0.1026787464361396, Final residual = 5.915487204082855e-15, No Iterations 2
ExecutionTime = 151.07 s  ClockTime = 185 s

Courant Number mean: 3.963800060941377e-09 max: 0.001971613580785865
deltaT = 1.144754599728827e-07
Time = 6.80853e-07

PIMPLE: iteration 1
diagonal:  Solving for rho, Initial residual = 0, Final residual = 0, No Iterations 0
DILUPBiCG:  Solving for Ux, Initial residual = 0.162650378950961, Final residual = 1.707697426648624e-14, No Iterations 2
DILUPBiCG:  Solving for Uy, Initial residual = 0.1626503789481527, Final residual = 1.710020622955772e-14, No Iterations 2
DILUPBiCG:  Solving for Uz, Initial residual = 0.04747862115135031, Final residual = 2.923679183882883e-15, No Iterations 2
DILUPBiCG:  Solving for e, Initial residual = 0.04702535169953297, Final residual = 7.508523872272428e-15, No Iterations 2
DILUPBiCG:  Solving for p, Initial residual = 0.04737651153397816, Final residual = 1.017510625829071e-07, No Iterations 1
pEqnloop: 0
diagonal:  Solving for rho, Initial residual = 0, Final residual = 0, No Iterations 0
time step continuity errors : sum local = 3.673161368466306e-14, global = 3.638199916512178e-14, cumulative = 8.116664965487387e-14
DILUPBiCG:  Solving for p, Initial residual = 1.108654774150452e-07, Final residual = 5.10623075949486e-18, No Iterations 2
pEqnloop: 1
diagonal:  Solving for rho, Initial residual = 0, Final residual = 0, No Iterations 0
time step continuity errors : sum local = 1.792668623942339e-16, global = -1.396150905851094e-16, cumulative = 8.102703456428875e-14
DILUPBiCG:  Solving for k, Initial residual = 0.1020768882286797, Final residual = 1.40932503658575e-14, No Iterations 2
ExecutionTime = 155.49 s  ClockTime = 191 s

Courant Number mean: 4.764107406329606e-09 max: 0.002362724964296522
deltaT = 1.373705519674592e-07
Time = 8.18223e-07

PIMPLE: iteration 1
diagonal:  Solving for rho, Initial residual = 0, Final residual = 0, No Iterations 0
DILUPBiCG:  Solving for Ux, Initial residual = 0.1621728689966491, Final residual = 5.378196682782911e-14, No Iterations 2
DILUPBiCG:  Solving for Uy, Initial residual = 0.1621728689940811, Final residual = 5.382192265383204e-14, No Iterations 2
DILUPBiCG:  Solving for Uz, Initial residual = 0.04727922534912261, Final residual = 9.633211599462819e-15, No Iterations 2
DILUPBiCG:  Solving for e, Initial residual = 0.04674126748858988, Final residual = 1.747493048702375e-14, No Iterations 2
DILUPBiCG:  Solving for p, Initial residual = 0.04716279866097869, Final residual = 1.495254073491826e-07, No Iterations 1
pEqnloop: 0
diagonal:  Solving for rho, Initial residual = 0, Final residual = 0, No Iterations 0
time step continuity errors : sum local = 6.463651982421229e-14, global = 6.457885289945422e-14, cumulative = 1.45605887463743e-13
DILUPBiCG:  Solving for p, Initial residual = 1.674834995673693e-07, Final residual = 1.710758411678427e-17, No Iterations 2
pEqnloop: 1
diagonal:  Solving for rho, Initial residual = 0, Final residual = 0, No Iterations 0
time step continuity errors : sum local = 2.720544478706607e-16, global = 2.608611093742489e-16, cumulative = 1.458667485731172e-13
DILUPBiCG:  Solving for k, Initial residual = 0.1015499011530344, Final residual = 3.382333482850262e-14, No Iterations 2
ExecutionTime = 160.34 s  ClockTime = 197 s

Courant Number mean: 5.729157945638672e-09 max: 0.002831151431704844
deltaT = 1.64844662360951e-07
Time = 9.83068e-07

PIMPLE: iteration 1
diagonal:  Solving for rho, Initial residual = 0, Final residual = 0, No Iterations 0
DILUPBiCG:  Solving for Ux, Initial residual = 0.1616922641805027, Final residual = 1.65778617945747e-13, No Iterations 2
DILUPBiCG:  Solving for Uy, Initial residual = 0.1616922641785199, Final residual = 1.658473027905748e-13, No Iterations 2
DILUPBiCG:  Solving for Uz, Initial residual = 0.04707219310815611, Final residual = 3.055775995690108e-14, No Iterations 2
DILUPBiCG:  Solving for e, Initial residual = 0.04643511540865784, Final residual = 4.102840940157746e-14, No Iterations 2
DILUPBiCG:  Solving for p, Initial residual = 0.04694093757196804, Final residual = 2.205678500208284e-07, No Iterations 1
pEqnloop: 0
diagonal:  Solving for rho, Initial residual = 0, Final residual = 0, No Iterations 0
time step continuity errors : sum local = 1.139369758602808e-13, global = 1.138116504491124e-13, cumulative = 2.596783990222296e-13
DILUPBiCG:  Solving for p, Initial residual = 2.543330717106919e-07, Final residual = 5.793786974791008e-17, No Iterations 2
pEqnloop: 1
diagonal:  Solving for rho, Initial residual = 0, Final residual = 0, No Iterations 0
time step continuity errors : sum local = 2.015081605607692e-16, global = 1.925682575958974e-16, cumulative = 2.598709672798255e-13
DILUPBiCG:  Solving for k, Initial residual = 0.1010841810073327, Final residual = 8.168173125464913e-14, No Iterations 2
ExecutionTime = 165.14 s  ClockTime = 203 s

Courant Number mean: 6.894866665579219e-09 max: 0.003392299833640217
deltaT = 1.978135948331412e-07
Time = 1.18088e-06

PIMPLE: iteration 1
diagonal:  Solving for rho, Initial residual = 0, Final residual = 0, No Iterations 0
DILUPBiCG:  Solving for Ux, Initial residual = 0.1611955304301079, Final residual = 5.047643882598424e-13, No Iterations 2
DILUPBiCG:  Solving for Uy, Initial residual = 0.1611955304285022, Final residual = 5.048819492336678e-13, No Iterations 2
DILUPBiCG:  Solving for Uz, Initial residual = 0.04685203757422462, Final residual = 9.473197869939206e-14, No Iterations 2
DILUPBiCG:  Solving for e, Initial residual = 0.04609956093544942, Final residual = 9.702933287758885e-14, No Iterations 2
DILUPBiCG:  Solving for p, Initial residual = 0.04670615228618887, Final residual = 3.267122148744589e-07, No Iterations 1
pEqnloop: 0
diagonal:  Solving for rho, Initial residual = 0, Final residual = 0, No Iterations 0
time step continuity errors : sum local = 2.020686185546433e-13, global = 2.006539555145495e-13, cumulative = 4.605249227943751e-13
DILUPBiCG:  Solving for p, Initial residual = 3.880165822703487e-07, Final residual = 1.983086358742998e-16, No Iterations 2
pEqnloop: 1
diagonal:  Solving for rho, Initial residual = 0, Final residual = 0, No Iterations 0
time step continuity errors : sum local = 5.814784934085506e-16, global = -5.791744024769834e-16, cumulative = 4.59945748391898e-13
DILUPBiCG:  Solving for k, Initial residual = 0.100668261933573, Final residual = 1.98303717903748e-13, No Iterations 2
ExecutionTime = 171.36 s  ClockTime = 212 s

Courant Number mean: 8.306228050752661e-09 max: 0.004064862143226222
deltaT = 2.373763137997695e-07
Time = 1.41826e-06

PIMPLE: iteration 1
diagonal:  Solving for rho, Initial residual = 0, Final residual = 0, No Iterations 0
DILUPBiCG:  Solving for Ux, Initial residual = 0.1606705339417747, Final residual = 1.861822660543034e-18, No Iterations 3
DILUPBiCG:  Solving for Uy, Initial residual = 0.1606705339404966, Final residual = 1.865765048671142e-18, No Iterations 3
DILUPBiCG:  Solving for Uz, Initial residual = 0.04661356795217204, Final residual = 2.893302342802397e-13, No Iterations 2
DILUPBiCG:  Solving for e, Initial residual = 0.04572760571403344, Final residual = 2.308268968920161e-13, No Iterations 2
DILUPBiCG:  Solving for p, Initial residual = 0.04645430728550087, Final residual = 4.860932743492797e-07, No Iterations 1
pEqnloop: 0
diagonal:  Solving for rho, Initial residual = 0, Final residual = 0, No Iterations 0
time step continuity errors : sum local = 3.585081847460991e-13, global = 3.57640522144027e-13, cumulative = 8.17586270535925e-13
DILUPBiCG:  Solving for p, Initial residual = 5.946556821265252e-07, Final residual = 6.866894383152949e-16, No Iterations 2
pEqnloop: 1
diagonal:  Solving for rho, Initial residual = 0, Final residual = 0, No Iterations 0
time step continuity errors : sum local = 1.278652827686487e-16, global = 2.04976396822194e-18, cumulative = 8.175883202998932e-13
DILUPBiCG:  Solving for k, Initial residual = 0.1002924923834957, Final residual = 4.836092351152484e-13, No Iterations 2
ExecutionTime = 177.14 s  ClockTime = 218 s

Courant Number mean: 1.002034394578368e-08 max: 0.004871711166575937
deltaT = 2.848515765597234e-07
Time = 1.70311e-06

PIMPLE: iteration 1
diagonal:  Solving for rho, Initial residual = 0, Final residual = 0, No Iterations 0
DILUPBiCG:  Solving for Ux, Initial residual = 0.1601061568328245, Final residual = 9.55712414025893e-18, No Iterations 3
DILUPBiCG:  Solving for Uy, Initial residual = 0.1601061568316285, Final residual = 9.572573698384227e-18, No Iterations 3
DILUPBiCG:  Solving for Uz, Initial residual = 0.04635203042928892, Final residual = 8.745886529537357e-13, No Iterations 2
DILUPBiCG:  Solving for e, Initial residual = 0.04531285990996918, Final residual = 5.517337357276992e-13, No Iterations 2
DILUPBiCG:  Solving for p, Initial residual = 0.04618212265812602, Final residual = 7.266322303973246e-07, No Iterations 1
pEqnloop: 0
diagonal:  Solving for rho, Initial residual = 0, Final residual = 0, No Iterations 0
time step continuity errors : sum local = 6.399511740856936e-13, global = 6.381062097547291e-13, cumulative = 1.455694530054622e-12
DILUPBiCG:  Solving for p, Initial residual = 9.147010342667954e-07, Final residual = 2.404893928908536e-15, No Iterations 2
pEqnloop: 1
diagonal:  Solving for rho, Initial residual = 0, Final residual = 0, No Iterations 0
time step continuity errors : sum local = 1.529752086262028e-16, global = 1.220967253326483e-16, cumulative = 1.455816626779955e-12
DILUPBiCG:  Solving for k, Initial residual = 0.09994885837398905, Final residual = 3.640641013004591e-18, No Iterations 3
ExecutionTime = 183.45 s  ClockTime = 227 s

Courant Number mean: 1.21108248208431e-08 max: 0.005841174881480025
deltaT = 3.41821891871668e-07
Time = 2.04493e-06

PIMPLE: iteration 1
diagonal:  Solving for rho, Initial residual = 0, Final residual = 0, No Iterations 0
DILUPBiCG:  Solving for Ux, Initial residual = 0.1594926457873281, Final residual = 4.882210587427206e-17, No Iterations 3
DILUPBiCG:  Solving for Uy, Initial residual = 0.1594926457862904, Final residual = 4.888656871399721e-17, No Iterations 3
DILUPBiCG:  Solving for Uz, Initial residual = 0.04606335021755739, Final residual = 5.064950354331671e-18, No Iterations 3
DILUPBiCG:  Solving for e, Initial residual = 0.04485005527445175, Final residual = 4.932154396243398e-18, No Iterations 3
DILUPBiCG:  Solving for p, Initial residual = 0.04588749857495643, Final residual = 1.091474452692089e-06, No Iterations 1
pEqnloop: 0
diagonal:  Solving for rho, Initial residual = 0, Final residual = 0, No Iterations 0
time step continuity errors : sum local = 1.146903297391474e-12, global = 1.141951992971139e-12, cumulative = 2.597768619751094e-12
DILUPBiCG:  Solving for p, Initial residual = 1.411334404073938e-06, Final residual = 8.526934174578235e-15, No Iterations 2
pEqnloop: 1
diagonal:  Solving for rho, Initial residual = 0, Final residual = 0, No Iterations 0
time step continuity errors : sum local = 1.909121124699085e-16, global = -1.708231526130209e-16, cumulative = 2.597597796598482e-12
DILUPBiCG:  Solving for k, Initial residual = 0.09963076914253324, Final residual = 1.52301307088829e-17, No Iterations 3
ExecutionTime = 191.86 s  ClockTime = 236 s

Courant Number mean: 1.467431532478667e-08 max: 0.007008909701044588
deltaT = 4.101862702460016e-07
Time = 2.45512e-06

PIMPLE: iteration 1
diagonal:  Solving for rho, Initial residual = 0, Final residual = 0, No Iterations 0
DILUPBiCG:  Solving for Ux, Initial residual = 0.1588222512703726, Final residual = 2.48400648182652e-16, No Iterations 3
DILUPBiCG:  Solving for Uy, Initial residual = 0.1588222512696122, Final residual = 2.486947878641074e-16, No Iterations 3
DILUPBiCG:  Solving for Uz, Initial residual = 0.04574467796993428, Final residual = 2.519406055850013e-17, No Iterations 3
DILUPBiCG:  Solving for e, Initial residual = 0.04433586815496937, Final residual = 1.989202655114225e-17, No Iterations 3
DILUPBiCG:  Solving for p, Initial residual = 0.04556997536891983, Final residual = 1.647420867794316e-06, No Iterations 1
pEqnloop: 0
diagonal:  Solving for rho, Initial residual = 0, Final residual = 0, No Iterations 0
time step continuity errors : sum local = 2.063385779209837e-12, global = 2.051013051195386e-12, cumulative = 4.648610847793867e-12
DILUPBiCG:  Solving for p, Initial residual = 2.182255512704275e-06, Final residual = 3.065431912026821e-14, No Iterations 2
pEqnloop: 1
diagonal:  Solving for rho, Initial residual = 0, Final residual = 0, No Iterations 0
time step continuity errors : sum local = 1.874846498027907e-16, global = -1.676773670837589e-16, cumulative = 4.648443170426783e-12
DILUPBiCG:  Solving for k, Initial residual = 0.09933287191822637, Final residual = 6.389144649104661e-17, No Iterations 3
ExecutionTime = 197.5 s  ClockTime = 247 s

Courant Number mean: 1.784032560313021e-08 max: 0.008420730798805705
deltaT = 4.922235242952019e-07
Time = 2.94734e-06

PIMPLE: iteration 1
diagonal:  Solving for rho, Initial residual = 0, Final residual = 0, No Iterations 0
DILUPBiCG:  Solving for Ux, Initial residual = 0.1580902163585758, Final residual = 1.258743766739152e-15, No Iterations 3
DILUPBiCG:  Solving for Uy, Initial residual = 0.1580902163578828, Final residual = 1.260244467083452e-15, No Iterations 3
DILUPBiCG:  Solving for Uz, Initial residual = 0.04539524118724426, Final residual = 1.247660935888023e-16, No Iterations 3
DILUPBiCG:  Solving for e, Initial residual = 0.04377011949049579, Final residual = 8.022109975517688e-17, No Iterations 3
DILUPBiCG:  Solving for p, Initial residual = 0.04523139426210179, Final residual = 2.497836917153273e-06, No Iterations 1
pEqnloop: 0
diagonal:  Solving for rho, Initial residual = 0, Final residual = 0, No Iterations 0
time step continuity errors : sum local = 3.725259298524431e-12, global = 3.693999780647139e-12, cumulative = 8.342442951073923e-12
DILUPBiCG:  Solving for p, Initial residual = 3.378287032278844e-06, Final residual = 1.120926036180118e-13, No Iterations 2
pEqnloop: 1
diagonal:  Solving for rho, Initial residual = 0, Final residual = 0, No Iterations 0
time step continuity errors : sum local = 1.308474997533713e-16, global = 1.70220511937656e-17, cumulative = 8.342459973125117e-12
DILUPBiCG:  Solving for k, Initial residual = 0.099050770325312, Final residual = 2.684417814232352e-16, No Iterations 3
ExecutionTime = 203.21 s  ClockTime = 255 s

Courant Number mean: 2.178621068875347e-08 max: 0.01013697500785309
deltaT = 5.906682291542422e-07
Time = 3.53801e-06

PIMPLE: iteration 1
diagonal:  Solving for rho, Initial residual = 0, Final residual = 0, No Iterations 0
DILUPBiCG:  Solving for Ux, Initial residual = 0.1572961565773636, Final residual = 6.348735894634097e-15, No Iterations 3
DILUPBiCG:  Solving for Uy, Initial residual = 0.1572961565767787, Final residual = 6.357249316006335e-15, No Iterations 3
DILUPBiCG:  Solving for Uz, Initial residual = 0.04501746294766306, Final residual = 6.147435869975071e-16, No Iterations 3
DILUPBiCG:  Solving for e, Initial residual = 0.04315749597840909, Final residual = 3.223638531850386e-16, No Iterations 3
DILUPBiCG:  Solving for p, Initial residual = 0.04488030595823921, Final residual = 3.800861339039586e-06, No Iterations 1
pEqnloop: 0
diagonal:  Solving for rho, Initial residual = 0, Final residual = 0, No Iterations 0
time step continuity errors : sum local = 6.743709351698858e-12, global = 6.662325532417943e-12, cumulative = 1.500478550554306e-11
DILUPBiCG:  Solving for p, Initial residual = 5.230023965731625e-06, Final residual = 4.202274765559749e-13, No Iterations 2
pEqnloop: 1
diagonal:  Solving for rho, Initial residual = 0, Final residual = 0, No Iterations 0
time step continuity errors : sum local = 2.772300169425684e-16, global = 2.659443945084848e-16, cumulative = 1.500505144993757e-11
DILUPBiCG:  Solving for k, Initial residual = 0.09878049581836139, Final residual = 1.127840638173027e-15, No Iterations 3
ExecutionTime = 209.52 s  ClockTime = 263 s

Courant Number mean: 2.675996837707623e-08 max: 0.01223925477548993
deltaT = 7.088018749850907e-07
Time = 4.24681e-06

PIMPLE: iteration 1
diagonal:  Solving for rho, Initial residual = 0, Final residual = 0, No Iterations 0
DILUPBiCG:  Solving for Ux, Initial residual = 0.1564459277118062, Final residual = 3.182296267930783e-14, No Iterations 3
DILUPBiCG:  Solving for Uy, Initial residual = 0.1564459277113998, Final residual = 3.187493322083722e-14, No Iterations 3
DILUPBiCG:  Solving for Uz, Initial residual = 0.04461867169319043, Final residual = 3.010354707481916e-15, No Iterations 3
DILUPBiCG:  Solving for e, Initial residual = 0.04251059453530603, Final residual = 1.284391153000667e-15, No Iterations 3
DILUPBiCG:  Solving for p, Initial residual = 0.04452820266727552, Final residual = 5.796106651520534e-06, No Iterations 1
pEqnloop: 0
diagonal:  Solving for rho, Initial residual = 0, Final residual = 0, No Iterations 0
time step continuity errors : sum local = 1.222251451593186e-11, global = 1.200828355395782e-11, cumulative = 2.701333500389539e-11
DILUPBiCG:  Solving for p, Initial residual = 8.087339170743331e-06, Final residual = 1.937490390830333e-16, No Iterations 3
pEqnloop: 1
diagonal:  Solving for rho, Initial residual = 0, Final residual = 0, No Iterations 0
time step continuity errors : sum local = 2.120469334308067e-16, global = -1.948362383291228e-16, cumulative = 2.701314016765706e-11
DILUPBiCG:  Solving for k, Initial residual = 0.09851750423072254, Final residual = 4.728611990052103e-15, No Iterations 3
ExecutionTime = 212.81 s  ClockTime = 269 s

Courant Number mean: 3.311482390902085e-08 max: 0.01484090786029179
deltaT = 8.505622499821088e-07
Time = 5.09737e-06

PIMPLE: iteration 1
diagonal:  Solving for rho, Initial residual = 0, Final residual = 0, No Iterations 0
DILUPBiCG:  Solving for Ux, Initial residual = 0.1555535925682793, Final residual = 1.581346629695389e-13, No Iterations 3
DILUPBiCG:  Solving for Uy, Initial residual = 0.1555535925680304, Final residual = 1.584670624415305e-13, No Iterations 3
DILUPBiCG:  Solving for Uz, Initial residual = 0.04421327114778356, Final residual = 1.463249539137944e-14, No Iterations 3
DILUPBiCG:  Solving for e, Initial residual = 0.04185223915846898, Final residual = 5.050073102002079e-15, No Iterations 3
DILUPBiCG:  Solving for p, Initial residual = 0.04418267826393311, Final residual = 8.843786678957238e-06, No Iterations 1
pEqnloop: 0
diagonal:  Solving for rho, Initial residual = 0, Final residual = 0, No Iterations 0
time step continuity errors : sum local = 2.214682631358117e-11, global = 2.158422845252956e-11, cumulative = 4.859736862018662e-11
DILUPBiCG:  Solving for p, Initial residual = 1.247581378297598e-05, Final residual = 9.363906497182519e-16, No Iterations 3
pEqnloop: 1
diagonal:  Solving for rho, Initial residual = 0, Final residual = 0, No Iterations 0
time step continuity errors : sum local = 2.941343451040603e-16, global = 2.287538931526473e-16, cumulative = 4.859759737407978e-11
DILUPBiCG:  Solving for k, Initial residual = 0.09825486085795912, Final residual = 1.973009585702409e-14, No Iterations 3
ExecutionTime = 218.11 s  ClockTime = 277 s

Courant Number mean: 4.13619281365724e-08 max: 0.01810325951783841
deltaT = 1.02067469997853e-06
Time = 6.11805e-06

PIMPLE: iteration 1
diagonal:  Solving for rho, Initial residual = 0, Final residual = 0, No Iterations 0
DILUPBiCG:  Solving for Ux, Initial residual = 0.1546427278253507, Final residual = 7.765639997224696e-13, No Iterations 3
DILUPBiCG:  Solving for Uy, Initial residual = 0.1546427278257777, Final residual = 7.787710885812411e-13, No Iterations 3
DILUPBiCG:  Solving for Uz, Initial residual = 0.04382537634403957, Final residual = 7.052532358081214e-14, No Iterations 3
DILUPBiCG:  Solving for e, Initial residual = 0.04121618913742305, Final residual = 1.943583365335767e-14, No Iterations 3
DILUPBiCG:  Solving for p, Initial residual = 0.04386342389529972, Final residual = 1.345686709578762e-05, No Iterations 1
pEqnloop: 0
diagonal:  Solving for rho, Initial residual = 0, Final residual = 0, No Iterations 0
time step continuity errors : sum local = 3.999001554885565e-11, global = 3.851280168520855e-11, cumulative = 8.711039905928833e-11
DILUPBiCG:  Solving for p, Initial residual = 1.915975274003101e-05, Final residual = 4.53879187055838e-15, No Iterations 3
pEqnloop: 1
diagonal:  Solving for rho, Initial residual = 0, Final residual = 0, No Iterations 0
time step continuity errors : sum local = 1.842466923003156e-16, global = -3.928056901191977e-17, cumulative = 8.711035977871931e-11
DILUPBiCG:  Solving for k, Initial residual = 0.09798021290359692, Final residual = 8.161314969691854e-14, No Iterations 3
ExecutionTime = 225.5 s  ClockTime = 286 s

Courant Number mean: 5.224846015815779e-08 max: 0.0222601811248356
deltaT = 1.224809639974236e-06
Time = 7.34286e-06

PIMPLE: iteration 1
diagonal:  Solving for rho, Initial residual = 0, Final residual = 0, No Iterations 0
DILUPBiCG:  Solving for Ux, Initial residual = 0.1537465907746715, Final residual = 3.683000039466198e-15, No Iterations 4
DILUPBiCG:  Solving for Uy, Initial residual = 0.153746590777993, Final residual = 3.683056632447111e-15, No Iterations 4
DILUPBiCG:  Solving for Uz, Initial residual = 0.04349142275963952, Final residual = 3.368330597493432e-13, No Iterations 3
DILUPBiCG:  Solving for e, Initial residual = 0.04065069543674436, Final residual = 7.214023802045904e-14, No Iterations 3
DILUPBiCG:  Solving for p, Initial residual = 0.04359231819390993, Final residual = 2.031798129736269e-05, No Iterations 1
pEqnloop: 0
diagonal:  Solving for rho, Initial residual = 0, Final residual = 0, No Iterations 0
time step continuity errors : sum local = 7.161246240178787e-11, global = 6.776528448620073e-11, cumulative = 1.5487564426492e-10
DILUPBiCG:  Solving for p, Initial residual = 2.918244651390592e-05, Final residual = 2.206089109638232e-14, No Iterations 3
pEqnloop: 1
diagonal:  Solving for rho, Initial residual = 0, Final residual = 0, No Iterations 0
time step continuity errors : sum local = 1.701154769596514e-16, global = -8.501718883002664e-17, cumulative = 1.548755592477312e-10
DILUPBiCG:  Solving for k, Initial residual = 0.09767113728793551, Final residual = 3.327990029751043e-13, No Iterations 3
ExecutionTime = 231.97 s  ClockTime = 294 s

Courant Number mean: 6.686956426454926e-08 max: 0.02765364928117847
deltaT = 1.469771567969084e-06
Time = 8.81263e-06

PIMPLE: iteration 1
diagonal:  Solving for rho, Initial residual = 0, Final residual = 0, No Iterations 0
DILUPBiCG:  Solving for Ux, Initial residual = 0.1529051041103977, Final residual = 2.951139124384108e-14, No Iterations 4
DILUPBiCG:  Solving for Uy, Initial residual = 0.1529051041216245, Final residual = 2.951153245676999e-14, No Iterations 4
DILUPBiCG:  Solving for Uz, Initial residual = 0.04326189883712948, Final residual = 2.667902470514935e-15, No Iterations 4
DILUPBiCG:  Solving for e, Initial residual = 0.04021674145426773, Final residual = 2.512243767420747e-13, No Iterations 3
DILUPBiCG:  Solving for p, Initial residual = 0.04338969920770677, Final residual = 3.024703738892941e-05, No Iterations 1
pEqnloop: 0
diagonal:  Solving for rho, Initial residual = 0, Final residual = 0, No Iterations 0
time step continuity errors : sum local = 1.263985292687245e-10, global = 1.164054901511776e-10, cumulative = 2.712810493989088e-10
DILUPBiCG:  Solving for p, Initial residual = 4.374820131427925e-05, Final residual = 1.073142616529494e-13, No Iterations 3
pEqnloop: 1
diagonal:  Solving for rho, Initial residual = 0, Final residual = 0, No Iterations 0
time step continuity errors : sum local = 1.999877200913413e-16, global = -1.009258660506034e-16, cumulative = 2.712809484730428e-10
DILUPBiCG:  Solving for k, Initial residual = 0.0972890560601385, Final residual = 1.251008822041612e-16, No Iterations 4
ExecutionTime = 237.38 s  ClockTime = 302 s

Courant Number mean: 8.682139845880168e-08 max: 0.03478176451420985
deltaT = 1.7637258815629e-06
Time = 1.05764e-05

PIMPLE: iteration 1
diagonal:  Solving for rho, Initial residual = 0, Final residual = 0, No Iterations 0
DILUPBiCG:  Solving for Ux, Initial residual = 0.152156067383858, Final residual = 2.249432921481004e-13, No Iterations 4
DILUPBiCG:  Solving for Uy, Initial residual = 0.1521560674210678, Final residual = 2.24934681011617e-13, No Iterations 4
DILUPBiCG:  Solving for Uz, Initial residual = 0.04320004014934459, Final residual = 1.98839803417976e-14, No Iterations 4
[...]
DILUPBiCG:  Solving for p, Initial residual = 0.0001213297771733538, Final residual = 1.839061595118256e-14, No Iterations 5
pEqnloop: 1
diagonal:  Solving for rho, Initial residual = 0, Final residual = 0, No Iterations 0
time step continuity errors : sum local = 1.713549095458916e-16, global = 6.884840030715467e-17, cumulative = -1.011027210378961e-08
DILUPBiCG:  Solving for k, Initial residual = 0.009101504084741641, Final residual = 4.770942521998199e-13, No Iterations 5
ExecutionTime = 1668.02 s  ClockTime = 9344 s

APIO_IO_STEP = 58.07497454500117
Courant Number mean: 4.446549754805771e-06 max: 0.1996720068968783
deltaT = 2.744592797910793e-06
Time = 0.000173294

PIMPLE: iteration 1
diagonal:  Solving for rho, Initial residual = 0, Final residual = 0, No Iterations 0
DILUPBiCG:  Solving for Ux, Initial residual = 0.01619986041610711, Final residual = 3.873271212219291e-13, No Iterations 5
DILUPBiCG:  Solving for Uy, Initial residual = 0.01619986315628362, Final residual = 3.793417853286241e-13, No Iterations 5
DILUPBiCG:  Solving for Uz, Initial residual = 0.00800834321873296, Final residual = 2.443866035350044e-13, No Iterations 5
DILUPBiCG:  Solving for e, Initial residual = 0.01123478965160627, Final residual = 9.498412537286925e-15, No Iterations 5
DILUPBiCG:  Solving for p, Initial residual = 0.01463072654316766, Final residual = 3.365764386607829e-05, No Iterations 1
pEqnloop: 0
diagonal:  Solving for rho, Initial residual = 0, Final residual = 0, No Iterations 0
time step continuity errors : sum local = 2.793330777983333e-09, global = -7.390157440840047e-10, cumulative = -1.084928784787362e-08
DILUPBiCG:  Solving for p, Initial residual = 0.0001059815743918775, Final residual = 1.030389127187221e-14, No Iterations 5
pEqnloop: 1
diagonal:  Solving for rho, Initial residual = 0, Final residual = 0, No Iterations 0
time step continuity errors : sum local = 1.748844328598706e-16, global = 8.284536392821597e-17, cumulative = -1.084928776502825e-08
DILUPBiCG:  Solving for k, Initial residual = 0.009158294352733406, Final residual = 7.258138717655584e-15, No Iterations 6
ExecutionTime = 1678.51 s  ClockTime = 9460 s

APIO_IO_STEP = 72.72426780700334
Courant Number mean: 4.561926103828423e-06 max: 0.1995709567022189
deltaT = 2.750493201278786e-06
Time = 0.000176044

PIMPLE: iteration 1
diagonal:  Solving for rho, Initial residual = 0, Final residual = 0, No Iterations 0
DILUPBiCG:  Solving for Ux, Initial residual = 0.01607105035954419, Final residual = 3.468013754405123e-13, No Iterations 5
DILUPBiCG:  Solving for Uy, Initial residual = 0.01607104491133615, Final residual = 3.3667102181528e-13, No Iterations 5
DILUPBiCG:  Solving for Uz, Initial residual = 0.007961785418657193, Final residual = 2.307608944175619e-13, No Iterations 5
DILUPBiCG:  Solving for e, Initial residual = 0.01117096329648784, Final residual = 8.704905885909169e-13, No Iterations 4
DILUPBiCG:  Solving for p, Initial residual = 0.01457834215755704, Final residual = 3.423134671043273e-05, No Iterations 1
pEqnloop: 0
diagonal:  Solving for rho, Initial residual = 0, Final residual = 0, No Iterations 0
time step continuity errors : sum local = 2.89082057111748e-09, global = -8.400685252344156e-10, cumulative = -1.168935629026267e-08
DILUPBiCG:  Solving for p, Initial residual = 0.0001105343972277704, Final residual = 1.165462454613453e-13, No Iterations 5
pEqnloop: 1
diagonal:  Solving for rho, Initial residual = 0, Final residual = 0, No Iterations 0
time step continuity errors : sum local = 1.771291109198315e-16, global = 5.65243094522e-17, cumulative = -1.168935623373836e-08
DILUPBiCG:  Solving for k, Initial residual = 0.00918592168226409, Final residual = 4.711333287960213e-13, No Iterations 5
ExecutionTime = 1683.63 s  ClockTime = 9573 s

APIO_IO_STEP = 73.66882608600281
Courant Number mean: 4.68147980065343e-06 max: 0.199619227430204
deltaT = 2.755739751813707e-06
Time = 0.0001788

PIMPLE: iteration 1
diagonal:  Solving for rho, Initial residual = 0, Final residual = 0, No Iterations 0
DILUPBiCG:  Solving for Ux, Initial residual = 0.01592359758232241, Final residual = 3.153481859245264e-13, No Iterations 5
DILUPBiCG:  Solving for Uy, Initial residual = 0.01592359196097868, Final residual = 3.058754802894322e-13, No Iterations 5
DILUPBiCG:  Solving for Uz, Initial residual = 0.007904996315019648, Final residual = 2.183577609258331e-13, No Iterations 5
DILUPBiCG:  Solving for e, Initial residual = 0.0111716012100743, Final residual = 7.698681874804799e-13, No Iterations 4
DILUPBiCG:  Solving for p, Initial residual = 0.01458218939933621, Final residual = 3.36401663382994e-05, No Iterations 1
pEqnloop: 0
diagonal:  Solving for rho, Initial residual = 0, Final residual = 0, No Iterations 0
time step continuity errors : sum local = 2.890193951675619e-09, global = -8.161564777869431e-10, cumulative = -1.25055127115253e-08
DILUPBiCG:  Solving for p, Initial residual = 0.00010456942763262, Final residual = 1.43015279960433e-13, No Iterations 5
pEqnloop: 1
diagonal:  Solving for rho, Initial residual = 0, Final residual = 0, No Iterations 0
time step continuity errors : sum local = 1.88530077769752e-16, global = 7.954454050287599e-17, cumulative = -1.250551263198076e-08
DILUPBiCG:  Solving for k, Initial residual = 0.009188628418526785, Final residual = 3.62069391616163e-13, No Iterations 5
ExecutionTime = 1775.07 s  ClockTime = 9747 s

APIO_IO_STEP = 66.09379028900003
Courant Number mean: 4.800724737777699e-06 max: 0.1994613678582483
deltaT = 2.763181443508522e-06
Time = 0.000181563

PIMPLE: iteration 1
diagonal:  Solving for rho, Initial residual = 0, Final residual = 0, No Iterations 0
DILUPBiCG:  Solving for Ux, Initial residual = 0.01577911202190204, Final residual = 2.977143776975984e-13, No Iterations 5
DILUPBiCG:  Solving for Uy, Initial residual = 0.01577911466321798, Final residual = 2.886211706118363e-13, No Iterations 5
DILUPBiCG:  Solving for Uz, Initial residual = 0.007826942224792336, Final residual = 2.091354773298529e-13, No Iterations 5
DILUPBiCG:  Solving for e, Initial residual = 0.01124304488814936, Final residual = 7.741043882646187e-13, No Iterations 4
DILUPBiCG:  Solving for p, Initial residual = 0.01458920733919026, Final residual = 3.32987285725116e-05, No Iterations 1
pEqnloop: 0
diagonal:  Solving for rho, Initial residual = 0, Final residual = 0, No Iterations 0
time step continuity errors : sum local = 2.909847906085486e-09, global = -8.086908566174461e-10, cumulative = -1.331420348859821e-08
DILUPBiCG:  Solving for p, Initial residual = 0.0001091191419032245, Final residual = 2.110125181727057e-14, No Iterations 5
pEqnloop: 1
diagonal:  Solving for rho, Initial residual = 0, Final residual = 0, No Iterations 0
time step continuity errors : sum local = 1.761793670832883e-16, global = -8.145859899207337e-17, cumulative = -1.331420357005681e-08
DILUPBiCG:  Solving for k, Initial residual = 0.009176744614508498, Final residual = 1.427005884648719e-14, No Iterations 5
ExecutionTime = 1785.81 s  ClockTime = 9851 s

APIO_IO_STEP = 65.27792330899683
Courant Number mean: 4.925155889002366e-06 max: 0.1990573957028574
deltaT = 2.776266045028784e-06
Time = 0.000184339

PIMPLE: iteration 1
diagonal:  Solving for rho, Initial residual = 0, Final residual = 0, No Iterations 0
DILUPBiCG:  Solving for Ux, Initial residual = 0.01565899566412159, Final residual = 2.939431010494069e-13, No Iterations 5
DILUPBiCG:  Solving for Uy, Initial residual = 0.01565898540809972, Final residual = 2.839872680087691e-13, No Iterations 5
DILUPBiCG:  Solving for Uz, Initial residual = 0.007788843730995444, Final residual = 2.055619558099772e-13, No Iterations 5
DILUPBiCG:  Solving for e, Initial residual = 0.01121863959724399, Final residual = 8.112220329595621e-13, No Iterations 4
DILUPBiCG:  Solving for p, Initial residual = 0.01452253016980023, Final residual = 3.327510747289681e-05, No Iterations 1
pEqnloop: 0
diagonal:  Solving for rho, Initial residual = 0, Final residual = 0, No Iterations 0
time step continuity errors : sum local = 2.956989563006607e-09, global = -8.378495235144337e-10, cumulative = -1.415205309357124e-08
DILUPBiCG:  Solving for p, Initial residual = 0.0001077157927285682, Final residual = 4.915954111652799e-14, No Iterations 5
pEqnloop: 1
diagonal:  Solving for rho, Initial residual = 0, Final residual = 0, No Iterations 0
time step continuity errors : sum local = 1.694796883100731e-16, global = -3.912339663002027e-17, cumulative = -1.415205313269464e-08
DILUPBiCG:  Solving for k, Initial residual = 0.009161151671163138, Final residual = 1.565079525761416e-14, No Iterations 5
ExecutionTime = 1796.9 s  ClockTime = 9950 s

APIO_IO_STEP = 59.33034268700067
Courant Number mean: 5.062099515965033e-06 max: 0.1984548381818642
deltaT = 2.797881946808066e-06
Time = 0.000187137

PIMPLE: iteration 1
diagonal:  Solving for rho, Initial residual = 0, Final residual = 0, No Iterations 0
DILUPBiCG:  Solving for Ux, Initial residual = 0.01562080887483298, Final residual = 2.986721091742076e-13, No Iterations 5
DILUPBiCG:  Solving for Uy, Initial residual = 0.01562080535375502, Final residual = 2.887059694870128e-13, No Iterations 5
DILUPBiCG:  Solving for Uz, Initial residual = 0.00779189883261787, Final residual = 2.084268775973016e-13, No Iterations 5
DILUPBiCG:  Solving for e, Initial residual = 0.01125025098173169, Final residual = 2.913616464163739e-14, No Iterations 5
DILUPBiCG:  Solving for p, Initial residual = 0.01463249356363329, Final residual = 3.360833488845002e-05, No Iterations 1
pEqnloop: 0
diagonal:  Solving for rho, Initial residual = 0, Final residual = 0, No Iterations 0
time step continuity errors : sum local = 3.036748732638318e-09, global = -8.676773965378851e-10, cumulative = -1.501973052923252e-08
DILUPBiCG:  Solving for p, Initial residual = 0.0001060713128292904, Final residual = 4.380754623272288e-14, No Iterations 5
pEqnloop: 1
diagonal:  Solving for rho, Initial residual = 0, Final residual = 0, No Iterations 0
time step continuity errors : sum local = 1.697022024469804e-16, global = 2.196865351159979e-17, cumulative = -1.501973050726387e-08
DILUPBiCG:  Solving for k, Initial residual = 0.009180230822314412, Final residual = 2.15753627423483e-14, No Iterations 5
ExecutionTime = 1806.11 s  ClockTime = 10048 s

APIO_IO_STEP = 62.577371166999
Courant Number mean: 5.217742014347981e-06 max: 0.2007214971519838
deltaT = 2.787824908150751e-06
Time = 0.000189925

PIMPLE: iteration 1
diagonal:  Solving for rho, Initial residual = 0, Final residual = 0, No Iterations 0
DILUPBiCG:  Solving for Ux, Initial residual = 0.01545012042959079, Final residual = 2.865000774782915e-13, No Iterations 5
DILUPBiCG:  Solving for Uy, Initial residual = 0.01545010493515765, Final residual = 2.782577835093266e-13, No Iterations 5
DILUPBiCG:  Solving for Uz, Initial residual = 0.007701521351218442, Final residual = 2.013766795579887e-13, No Iterations 5
DILUPBiCG:  Solving for e, Initial residual = 0.01123719715661314, Final residual = 2.83465335029506e-14, No Iterations 5
DILUPBiCG:  Solving for p, Initial residual = 0.01453217963281498, Final residual = 3.244528812951912e-05, No Iterations 1
pEqnloop: 0
diagonal:  Solving for rho, Initial residual = 0, Final residual = 0, No Iterations 0
time step continuity errors : sum local = 2.980407338233168e-09, global = -8.026642189224482e-10, cumulative = -1.582239472618632e-08
DILUPBiCG:  Solving for p, Initial residual = 0.0001085520426477601, Final residual = 1.637078206968974e-14, No Iterations 5
pEqnloop: 1
diagonal:  Solving for rho, Initial residual = 0, Final residual = 0, No Iterations 0
time step continuity errors : sum local = 1.735487089485335e-16, global = 7.1718887569208e-17, cumulative = -1.582239465446743e-08
DILUPBiCG:  Solving for k, Initial residual = 0.009121713794475536, Final residual = 3.928122824112936e-14, No Iterations 5
ExecutionTime = 1838.44 s  ClockTime = 10146 s

APIO_IO_STEP = 50.25128202600354
Courant Number mean: 5.315060597962757e-06 max: 0.2018910932887141
deltaT = 2.76171163644551e-06
Time = 0.000192687

PIMPLE: iteration 1
diagonal:  Solving for rho, Initial residual = 0, Final residual = 0, No Iterations 0
DILUPBiCG:  Solving for Ux, Initial residual = 0.01520644474348494, Final residual = 2.607292722335675e-13, No Iterations 5
DILUPBiCG:  Solving for Uy, Initial residual = 0.0152064337333035, Final residual = 2.562171627623088e-13, No Iterations 5
DILUPBiCG:  Solving for Uz, Initial residual = 0.007565671197861139, Final residual = 1.869344913307242e-13, No Iterations 5
DILUPBiCG:  Solving for e, Initial residual = 0.0111007253018706, Final residual = 2.424380730633208e-14, No Iterations 5
DILUPBiCG:  Solving for p, Initial residual = 0.01439853551767734, Final residual = 3.169096788251172e-05, No Iterations 1
pEqnloop: 0
diagonal:  Solving for rho, Initial residual = 0, Final residual = 0, No Iterations 0
time step continuity errors : sum local = 2.958571022546225e-09, global = -8.049720910022271e-10, cumulative = -1.662736674546966e-08
DILUPBiCG:  Solving for p, Initial residual = 0.0001006327151140542, Final residual = 2.031326637548441e-14, No Iterations 5
pEqnloop: 1
diagonal:  Solving for rho, Initial residual = 0, Final residual = 0, No Iterations 0
time step continuity errors : sum local = 1.648954900608496e-16, global = -6.583123781435306e-18, cumulative = -1.662736675205278e-08
DILUPBiCG:  Solving for k, Initial residual = 0.009042280816274895, Final residual = 2.762226343687382e-14, No Iterations 5
ExecutionTime = 1854.79 s  ClockTime = 10253 s

APIO_IO_STEP = 62.31888989899562
Courant Number mean: 5.378036858495803e-06 max: 0.2016378985337716
deltaT = 2.73927833659003e-06
Time = 0.000195426

PIMPLE: iteration 1
diagonal:  Solving for rho, Initial residual = 0, Final residual = 0, No Iterations 0
DILUPBiCG:  Solving for Ux, Initial residual = 0.01496738888340092, Final residual = 2.368744238622122e-13, No Iterations 5
DILUPBiCG:  Solving for Uy, Initial residual = 0.01496736974665623, Final residual = 2.348878719558723e-13, No Iterations 5
DILUPBiCG:  Solving for Uz, Initial residual = 0.007422915472580702, Final residual = 1.724498263520504e-13, No Iterations 5
DILUPBiCG:  Solving for e, Initial residual = 0.0109942878363292, Final residual = 2.742265842276144e-14, No Iterations 5
DILUPBiCG:  Solving for p, Initial residual = 0.01416474575741269, Final residual = 3.050115454412381e-05, No Iterations 1
pEqnloop: 0
diagonal:  Solving for rho, Initial residual = 0, Final residual = 0, No Iterations 0
time step continuity errors : sum local = 2.893354320984435e-09, global = -8.024842686105102e-10, cumulative = -1.742985102066329e-08
DILUPBiCG:  Solving for p, Initial residual = 0.0001045649457748191, Final residual = 1.638410103731022e-14, No Iterations 5
pEqnloop: 1
diagonal:  Solving for rho, Initial residual = 0, Final residual = 0, No Iterations 0
time step continuity errors : sum local = 1.623234642749631e-16, global = -1.429667512884592e-17, cumulative = -1.742985103495996e-08
DILUPBiCG:  Solving for k, Initial residual = 0.008987113642207112, Final residual = 2.87774257236621e-14, No Iterations 5
ExecutionTime = 1867.52 s  ClockTime = 10347 s

APIO_IO_STEP = 52.33744397000191
Courant Number mean: 5.444724604398982e-06 max: 0.2007915967023957
deltaT = 2.728479061452011e-06
Time = 0.000198155

PIMPLE: iteration 1
diagonal:  Solving for rho, Initial residual = 0, Final residual = 0, No Iterations 0
DILUPBiCG:  Solving for Ux, Initial residual = 0.01477827898478873, Final residual = 2.232734260847454e-13, No Iterations 5
DILUPBiCG:  Solving for Uy, Initial residual = 0.01477828408059608, Final residual = 2.216763638119418e-13, No Iterations 5
DILUPBiCG:  Solving for Uz, Initial residual = 0.007326097410066446, Final residual = 1.617653875329252e-13, No Iterations 5
DILUPBiCG:  Solving for e, Initial residual = 0.01087856014221195, Final residual = 9.374440728949293e-14, No Iterations 5
DILUPBiCG:  Solving for p, Initial residual = 0.01402253534332487, Final residual = 3.003741993404814e-05, No Iterations 1
pEqnloop: 0
diagonal:  Solving for rho, Initial residual = 0, Final residual = 0, No Iterations 0
time step continuity errors : sum local = 2.895103666778132e-09, global = -8.245756977526043e-10, cumulative = -1.825442673271257e-08
DILUPBiCG:  Solving for p, Initial residual = 9.709299875065269e-05, Final residual = 2.253386332053481e-14, No Iterations 5
pEqnloop: 1
diagonal:  Solving for rho, Initial residual = 0, Final residual = 0, No Iterations 0
time step continuity errors : sum local = 1.74998985187099e-16, global = -8.488227136544956e-17, cumulative = -1.825442681759484e-08
DILUPBiCG:  Solving for k, Initial residual = 0.008970667021793412, Final residual = 5.360948088371007e-13, No Iterations 5
ExecutionTime = 1883.7 s  ClockTime = 10440 s

APIO_IO_STEP = 60.49544588199933
Courant Number mean: 5.534209692861536e-06 max: 0.2003265165002668
deltaT = 2.724031854712917e-06
Time = 0.000200879

PIMPLE: iteration 1
diagonal:  Solving for rho, Initial residual = 0, Final residual = 0, No Iterations 0
DILUPBiCG:  Solving for Ux, Initial residual = 0.01464914908249263, Final residual = 2.192058238847096e-13, No Iterations 5
DILUPBiCG:  Solving for Uy, Initial residual = 0.01464916160036786, Final residual = 2.157140190129842e-13, No Iterations 5
DILUPBiCG:  Solving for Uz, Initial residual = 0.00727419586275318, Final residual = 1.533542125207487e-13, No Iterations 5
DILUPBiCG:  Solving for e, Initial residual = 0.01085632925803562, Final residual = 1.484421091100605e-13, No Iterations 5
DILUPBiCG:  Solving for p, Initial residual = 0.01395668032986009, Final residual = 2.979464223000269e-05, No Iterations 1
pEqnloop: 0
diagonal:  Solving for rho, Initial residual = 0, Final residual = 0, No Iterations 0
time step continuity errors : sum local = 2.917563774001556e-09, global = -8.422676397860625e-10, cumulative = -1.90966944573809e-08
DILUPBiCG:  Solving for p, Initial residual = 9.666094737689415e-05, Final residual = 1.063691243025095e-14, No Iterations 5
pEqnloop: 1
diagonal:  Solving for rho, Initial residual = 0, Final residual = 0, No Iterations 0
time step continuity errors : sum local = 1.625001419524895e-16, global = -4.266268972648259e-17, cumulative = -1.909669450004359e-08
DILUPBiCG:  Solving for k, Initial residual = 0.008982150600158407, Final residual = 2.85721456238836e-13, No Iterations 5
ExecutionTime = 1914.67 s  ClockTime = 10545 s

APIO_IO_STEP = 56.20946939799796
Terminating ...
End

APIO_IO_TIME = 5276.210506342259
Finalising parallel run
/*---------------------------------------------------------------------------*\
| =========                 |                                                 |
| \\      /  F ield         | OpenFOAM: The Open Source CFD Toolbox           |
|  \\    /   O peration     | Version:  v1912                                 |
|   \\  /    A nd           | Website:  www.openfoam.com                      |
|    \\/     M anipulation  |                                                 |
\*---------------------------------------------------------------------------*/
Build  : _f3950763fe-20191219 OPENFOAM=1912
Arch   : "LSB;label=32;scalar=64"
Exec   : rhoPimpleAPIO_METRICS -parallel
Date   : Oct 29 2020
Time   : 12:54:24
Host   : r39c2t2n1
PID    : 226454
I/O    : uncollated
Case   : /lustre/cray/ws9/2/ws/hpcmcast-ashee2/HAWK/apio_32M/256
nProcs : 256
Hosts  :
(
    (r39c2t2n1 128)
    (r43c1t2n4 128)
)
Pstream initialized with:
    floatTransfer      : 0
    nProcsSimpleSum    : 0
    commsType          : nonBlocking
    polling iterations : 0
trapFpe: Floating point exception trapping enabled (FOAM_SIGFPE).
fileModificationChecking : Monitoring run-time modified files using timeStampMaster (fileModificationSkew 10)
allowSystemOperations : Allowing user-supplied system call operations

// * * * * * * * * * * * * * * * * * * * * * * * * * * * * * * * * * * * * * //
