/*---------------------------------------------------------------------------*\
| =========                 |                                                 |
| \\      /  F ield         | OpenFOAM: The Open Source CFD Toolbox           |
|  \\    /   O peration     | Version:  v1912                                 |
|   \\  /    A nd           | Website:  www.openfoam.com                      |
|    \\/     M anipulation  |                                                 |
\*---------------------------------------------------------------------------*/
Build  : _f3950763fe-20191219 OPENFOAM=1912
Arch   : "LSB;label=32;scalar=64"
Exec   : rhoPimpleFoam_METRICS -parallel
Date   : Oct 27 2020
Time   : 13:13:02
Host   : r42c4t5n3
PID    : 111672
I/O    : uncollated
Case   : /lustre/cray/ws9/2/ws/hpcmcast-ashee2/HAWK/apio_32M/256
nProcs : 256
Hosts  :
(
    (r42c4t5n3 128)
    (r42c4t5n4 128)
)
Pstream initialized with:
    floatTransfer      : 0
    nProcsSimpleSum    : 0
    commsType          : nonBlocking
    polling iterations : 0
trapFpe: Floating point exception trapping enabled (FOAM_SIGFPE).
fileModificationChecking : Monitoring run-time modified files using timeStampMaster (fileModificationSkew 10)
allowSystemOperations : Allowing user-supplied system call operations

// * * * * * * * * * * * * * * * * * * * * * * * * * * * * * * * * * * * * * //
Create time

Create mesh for time = 0


PIMPLE: Operating solver in PISO mode

Reading thermophysical properties

Selecting thermodynamics package 
{
    type            hePsiThermo;
    mixture         pureMixture;
    transport       const;
    thermo          eConst;
    equationOfState perfectGas;
    specie          specie;
    energy          sensibleInternalEnergy;
}

Reading field U

Reading/calculating face flux field phi

--> FOAM Warning : 
    From function Foam::pressureControl::pressureControl(const volScalarField&, const volScalarField&, const Foam::dictionary&, bool)
    in file cfdTools/general/pressureControl/pressureControl.C at line 123
    Reading "/lustre/cray/ws9/2/ws/hpcmcast-ashee2/HAWK/apio_32M/256/system/fvSolution.PIMPLE"
    'rhoMax' specified rather than 'pMax' or 'pMaxFactor'
    This is supported for backward-compatibility but 'pMax' or 'pMaxFactor' are more reliable.
--> FOAM Warning : 
    From function Foam::pressureControl::pressureControl(const volScalarField&, const volScalarField&, const Foam::dictionary&, bool)
    in file cfdTools/general/pressureControl/pressureControl.C at line 178
    Reading "/lustre/cray/ws9/2/ws/hpcmcast-ashee2/HAWK/apio_32M/256/system/fvSolution.PIMPLE"
    'rhoMin' specified rather than 'pMin' or 'pMinFactor'
    This is supported for backward-compatibility but 'pMin' or 'pMinFactor' are more reliable.
pressureControl
    pMax 1726187.557059955
    pMin 4747.015781914877

Creating turbulence model

Selecting turbulence model type LES
Selecting LES turbulence model kEqn
Selecting LES delta type cubeRootVol
LES
{
    LESModel        kEqn;
    turbulence      on;
    printCoeffs     on;
    delta           cubeRootVol;
    cubeRootVolCoeffs
    {
        deltaCoeff      1;
    }
    PrandtlCoeffs
    {
        delta           cubeRootVol;
        cubeRootVolCoeffs
        {
            deltaCoeff      1;
        }
        smoothCoeffs
        {
            delta           cubeRootVol;
            cubeRootVolCoeffs
            {
                deltaCoeff      1;
            }
            maxDeltaRatio   1.1;
        }
        Cdelta          0.158;
    }
    vanDriestCoeffs
    {
        delta           cubeRootVol;
        cubeRootVolCoeffs
        {
            deltaCoeff      1;
        }
        smoothCoeffs
        {
            delta           cubeRootVol;
            cubeRootVolCoeffs
            {
                deltaCoeff      1;
            }
            maxDeltaRatio   1.1;
        }
        Aplus           26;
        Cdelta          0.158;
    }
    smoothCoeffs
    {
        delta           cubeRootVol;
        cubeRootVolCoeffs
        {
            deltaCoeff      1;
        }
        maxDeltaRatio   1.1;
    }
    Ce              1.048;
    Ck              0.094;
}

Creating field dpdt

Creating field kinetic energy K

No MRF models present

procNo = 80
procNo = 81
procNo = 82
procNo = 83
procNo = 84
procNo = 85
procNo = 86
procNo = 87
procNo = 88
procNo = 89
procNo = 90
procNo = 91
procNo = 92
procNo = 93
procNo = 94
procNo = 95
procNo = 96
procNo = 97
procNo = 98
procNo = 99
procNo = 100
procNo = 101
procNo = 102
procNo = 103
procNo = 104
procNo = 105
procNo = 106
procNo = 107
procNo = 108
procNo = 109
procNo = 110
procNo = 111
procNo = 112
procNo = 113
procNo = 114
procNo = 115
procNo = 116
procNo = 117
procNo = 118
procNo = 119
procNo = 120
procNo = 121
procNo = 122
procNo = 123
procNo = 124
procNo = 125
procNo = 126
procNo = 127
No finite volume options present
procNo = 0
masterNo = 0
procNo = 1
procNo = 2
procNo = 3
procNo = 4
procNo = 5
procNo = 6
procNo = 7
procNo = 8
procNo = 9
procNo = 10
procNo = 11
procNo = 12
procNo = 13
procNo = 14
procNo = 15
procNo = 16
procNo = 17
procNo = 18
procNo = 19
procNo = 20
procNo = 21
procNo = 22
procNo = 23
procNo = 24
procNo = 25
procNo = 26
procNo = 27
procNo = 28
procNo = 29
procNo = 30
procNo = 31
procNo = 32
procNo = 33
procNo = 34
procNo = 35
procNo = 36
procNo = 37
procNo = 38
procNo = 39
procNo = 40
procNo = 41
procNo = 42
procNo = 43
procNo = 44
procNo = 45
procNo = 46
procNo = 47
procNo = 48
procNo = 49
procNo = 50
procNo = 51
procNo = 52
procNo = 53
procNo = 54
procNo = 55
procNo = 56
procNo = 57
procNo = 58
procNo = 59
procNo = 60
procNo = 61
procNo = 62
procNo = 63
procNo = 64
procNo = 65
procNo = 66
procNo = 67
procNo = 68
procNo = 69
procNo = 70
procNo = 71
procNo = 72
procNo = 73
procNo = 74
procNo = 75
procNo = 76
procNo = 77
procNo = 78
procNo = 79
procNo = 128
procNo = 129
procNo = 130
procNo = 131
procNo = 132
procNo = 133
procNo = 134
procNo = 135
procNo = 136
procNo = 137
procNo = 138
procNo = 139
procNo = 140
procNo = 141
procNo = 142
procNo = 143
procNo = 144
procNo = 145
procNo = 146
procNo = 147
procNo = 148
procNo = 149
procNo = 150
procNo = 151
procNo = 152
procNo = 153
procNo = 154
procNo = 155
procNo = 156
procNo = 157
procNo = 158
procNo = 159
procNo = 160
procNo = 161
procNo = 162
procNo = 163
procNo = 164
procNo = 165
procNo = 166
procNo = 167
procNo = 168
procNo = 169
procNo = 170
procNo = 171
procNo = 172
procNo = 173
procNo = 174
procNo = 175
procNo = 176
procNo = 177
procNo = 178
procNo = 179
procNo = 180
procNo = 181
procNo = 182
procNo = 183
procNo = 184
procNo = 185
procNo = 186
procNo = 187
procNo = 188
procNo = 189
procNo = 190
procNo = 191
procNo = 192
procNo = 193
procNo = 194
procNo = 195
procNo = 196
procNo = 197
procNo = 198
procNo = 199
procNo = 200
procNo = 201
procNo = 202
procNo = 203
procNo = 204
procNo = 205
procNo = 206
procNo = 207
procNo = 208
procNo = 209
procNo = 210
procNo = 211
procNo = 212
procNo = 213
procNo = 214
procNo = 215
procNo = 216
procNo = 217
procNo = 218
procNo = 219
procNo = 220
procNo = 221
procNo = 222
procNo = 223
procNo = 224
procNo = 225
procNo = 226
procNo = 227
procNo = 228
procNo = 229
procNo = 230
procNo = 231
procNo = 232
procNo = 233
procNo = 234
procNo = 235
procNo = 236
procNo = 237
procNo = 238
procNo = 239
procNo = 240
procNo = 241
procNo = 242
procNo = 243
procNo = 244
procNo = 245
procNo = 246
procNo = 247
procNo = 248
procNo = 249
procNo = 250
procNo = 251
procNo = 252
procNo = 253
procNo = 254
procNo = 255
Courant Number mean: 4.134521852239614e-11 max: 2.085039370078742e-05

Starting time loop

Courant Number mean: 4.134521852239614e-11 max: 2.085039370078742e-05
deltaT = 1.2e-09
Time = 1.2e-09

PIMPLE: iteration 1
diagonal:  Solving for rho, Initial residual = 0, Final residual = 0, No Iterations 0
DILUPBiCG:  Solving for Ux, Initial residual = 1, Final residual = 1.867363193248584e-20, No Iterations 2
DILUPBiCG:  Solving for Uy, Initial residual = 1, Final residual = 2.934319603197499e-20, No Iterations 2
DILUPBiCG:  Solving for Uz, Initial residual = 1, Final residual = 3.53445333702972e-20, No Iterations 2
DILUPBiCG:  Solving for e, Initial residual = 0.9999990153972125, Final residual = 1.421595860929902e-19, No Iterations 2
DILUPBiCG:  Solving for p, Initial residual = 0.9999996220458832, Final residual = 4.931654834482714e-10, No Iterations 1
diagonal:  Solving for rho, Initial residual = 0, Final residual = 0, No Iterations 0
time step continuity errors : sum local = 2.444583544679174e-16, global = -2.438760847025e-16, cumulative = -2.438760847025e-16
DILUPBiCG:  Solving for p, Initial residual = 1.179021047725126e-07, Final residual = 1.72369363716534e-16, No Iterations 1
diagonal:  Solving for rho, Initial residual = 0, Final residual = 0, No Iterations 0
time step continuity errors : sum local = 2.670305435577606e-16, global = -2.660355631391712e-16, cumulative = -5.099116478416712e-16
DILUPBiCG:  Solving for k, Initial residual = 0.9999999950594971, Final residual = 3.535749041718991e-20, No Iterations 2
ExecutionTime = 5.06 s  ClockTime = 7 s

ORIG_COMP_STEP = 2.864453432
ORIG_IO_STEP = 2.757852943000001
Courant Number mean: 4.961451094373047e-11 max: 2.501990921293873e-05
deltaT = 1.44e-09
Time = 2.64e-09

PIMPLE: iteration 1
diagonal:  Solving for rho, Initial residual = 0, Final residual = 0, No Iterations 0
DILUPBiCG:  Solving for Ux, Initial residual = 0.3749195240688952, Final residual = 4.241326642440109e-21, No Iterations 2
DILUPBiCG:  Solving for Uy, Initial residual = 0.3749195240687826, Final residual = 6.656951542091175e-21, No Iterations 2
DILUPBiCG:  Solving for Uz, Initial residual = 0.2307601757170031, Final residual = 4.951521747697521e-21, No Iterations 2
DILUPBiCG:  Solving for e, Initial residual = 0.2307512174144266, Final residual = 1.987883119196574e-20, No Iterations 2
DILUPBiCG:  Solving for p, Initial residual = 0.2307584247213175, Final residual = 6.862286157168458e-11, No Iterations 1
diagonal:  Solving for rho, Initial residual = 0, Final residual = 0, No Iterations 0
time step continuity errors : sum local = 5.53774751182102e-16, global = -5.536371067351565e-16, cumulative = -1.063548754576828e-15
DILUPBiCG:  Solving for p, Initial residual = 7.841530570038444e-08, Final residual = 7.182938232009283e-15, No Iterations 1
diagonal:  Solving for rho, Initial residual = 0, Final residual = 0, No Iterations 0
time step continuity errors : sum local = 4.801596845419437e-16, global = -4.801542579940098e-16, cumulative = -1.543703012570837e-15
DILUPBiCG:  Solving for k, Initial residual = 0.7612500410084146, Final residual = 1.63615783552991e-20, No Iterations 2
ExecutionTime = 9.16 s  ClockTime = 14 s

ORIG_COMP_STEP = 4.096461018
ORIG_IO_STEP = 3.300440359
Courant Number mean: 5.953777282901839e-11 max: 3.002308059560315e-05
deltaT = 1.728e-09
Time = 4.368e-09

PIMPLE: iteration 1
diagonal:  Solving for rho, Initial residual = 0, Final residual = 0, No Iterations 0
DILUPBiCG:  Solving for Ux, Initial residual = 0.323107718822226, Final residual = 5.337421305711227e-21, No Iterations 2
DILUPBiCG:  Solving for Uy, Initial residual = 0.3231077188501409, Final residual = 8.348247212487963e-21, No Iterations 2
DILUPBiCG:  Solving for Uz, Initial residual = 0.1406145040466775, Final residual = 4.432032106460387e-21, No Iterations 2
DILUPBiCG:  Solving for e, Initial residual = 0.1406066080196728, Final residual = 1.769640302779038e-20, No Iterations 2
DILUPBiCG:  Solving for p, Initial residual = 0.1406128428207602, Final residual = 6.022634409952031e-11, No Iterations 1
diagonal:  Solving for rho, Initial residual = 0, Final residual = 0, No Iterations 0
time step continuity errors : sum local = 6.629883472272474e-16, global = -6.627610533955686e-16, cumulative = -2.206464065966406e-15
DILUPBiCG:  Solving for p, Initial residual = 5.019464542598094e-08, Final residual = 4.049631817861251e-14, No Iterations 1
diagonal:  Solving for rho, Initial residual = 0, Final residual = 0, No Iterations 0
time step continuity errors : sum local = 6.455364518703105e-16, global = -6.455361119785394e-16, cumulative = -2.852000177944945e-15
DILUPBiCG:  Solving for k, Initial residual = 0.5223926727772212, Final residual = 1.652670144043233e-20, No Iterations 2
ExecutionTime = 18.19 s  ClockTime = 27 s

ORIG_COMP_STEP = 9.011026552999999
ORIG_IO_STEP = 2.392722951
Courant Number mean: 7.144584772657022e-11 max: 3.602653054273845e-05
deltaT = 2.0736e-09
Time = 6.4416e-09

PIMPLE: iteration 1
diagonal:  Solving for rho, Initial residual = 0, Final residual = 0, No Iterations 0
DILUPBiCG:  Solving for Ux, Initial residual = 0.2861774463798876, Final residual = 6.980496540838007e-21, No Iterations 2
DILUPBiCG:  Solving for Uy, Initial residual = 0.2861774464129252, Final residual = 1.085055920239094e-20, No Iterations 2
DILUPBiCG:  Solving for Uz, Initial residual = 0.1060780689587563, Final residual = 4.988372332447084e-21, No Iterations 2
DILUPBiCG:  Solving for e, Initial residual = 0.1060690379040484, Final residual = 1.972876594672132e-20, No Iterations 2
DILUPBiCG:  Solving for p, Initial residual = 0.1060760678887895, Final residual = 6.544500727451953e-11, No Iterations 1
diagonal:  Solving for rho, Initial residual = 0, Final residual = 0, No Iterations 0
time step continuity errors : sum local = 3.528360159575638e-16, global = -3.492447546650092e-16, cumulative = -3.201244932609954e-15
DILUPBiCG:  Solving for p, Initial residual = 3.573677316314004e-08, Final residual = 5.982834557933284e-14, No Iterations 1
diagonal:  Solving for rho, Initial residual = 0, Final residual = 0, No Iterations 0
time step continuity errors : sum local = 3.786690270664309e-16, global = -3.77923081832859e-16, cumulative = -3.579168014442813e-15
DILUPBiCG:  Solving for k, Initial residual = 0.3755564138292281, Final residual = 1.779002356451339e-20, No Iterations 2
ExecutionTime = 24.11 s  ClockTime = 35 s

ORIG_COMP_STEP = 5.898098766
ORIG_IO_STEP = 4.510369528000002
Courant Number mean: 8.573577152541714e-11 max: 4.323015923841612e-05
deltaT = 2.48832e-09
Time = 8.92992e-09

PIMPLE: iteration 1
diagonal:  Solving for rho, Initial residual = 0, Final residual = 0, No Iterations 0
DILUPBiCG:  Solving for Ux, Initial residual = 0.2580115701006959, Final residual = 9.404811632390567e-21, No Iterations 2
DILUPBiCG:  Solving for Uy, Initial residual = 0.2580115702413756, Final residual = 1.448728560985107e-20, No Iterations 2
DILUPBiCG:  Solving for Uz, Initial residual = 0.08805286406051967, Final residual = 6.278481664881264e-21, No Iterations 2
DILUPBiCG:  Solving for e, Initial residual = 0.08804227220651428, Final residual = 2.450173850221805e-20, No Iterations 2
DILUPBiCG:  Solving for p, Initial residual = 0.08805033432434407, Final residual = 7.825911290114725e-11, No Iterations 1
diagonal:  Solving for rho, Initial residual = 0, Final residual = 0, No Iterations 0
time step continuity errors : sum local = 1.232339148118996e-16, global = -4.650978199736606e-17, cumulative = -3.625677796440179e-15
DILUPBiCG:  Solving for p, Initial residual = 2.007434530834896e-08, Final residual = 2.168539473304032e-14, No Iterations 1
diagonal:  Solving for rho, Initial residual = 0, Final residual = 0, No Iterations 0
time step continuity errors : sum local = 1.128800027573537e-16, global = -2.793248155205016e-17, cumulative = -3.653610277992229e-15
DILUPBiCG:  Solving for k, Initial residual = 0.2906877194128914, Final residual = 2.099826969402636e-20, No Iterations 2
ExecutionTime = 30.05 s  ClockTime = 46 s

ORIG_COMP_STEP = 5.888656695999998
ORIG_IO_STEP = 3.892925820999999
Courant Number mean: 1.0288402122263e-10 max: 5.187377896431865e-05
deltaT = 2.985983999999999e-09
Time = 1.19159e-08

PIMPLE: iteration 1
diagonal:  Solving for rho, Initial residual = 0, Final residual = 0, No Iterations 0
DILUPBiCG:  Solving for Ux, Initial residual = 0.2369027228889513, Final residual = 1.307203146769504e-20, No Iterations 2
DILUPBiCG:  Solving for Uy, Initial residual = 0.2369027230042267, Final residual = 1.989703511017953e-20, No Iterations 2
DILUPBiCG:  Solving for Uz, Initial residual = 0.07712864145512982, Final residual = 8.479169741833857e-21, No Iterations 2
DILUPBiCG:  Solving for e, Initial residual = 0.07711582192772418, Final residual = 3.254076154559046e-20, No Iterations 2
DILUPBiCG:  Solving for p, Initial residual = 0.07712531338232348, Final residual = 9.876443117645874e-11, No Iterations 1
diagonal:  Solving for rho, Initial residual = 0, Final residual = 0, No Iterations 0
time step continuity errors : sum local = 3.643976043336071e-16, global = 3.636469709380124e-16, cumulative = -3.289963307054216e-15
DILUPBiCG:  Solving for p, Initial residual = 1.30960362094006e-08, Final residual = 1.646510105680216e-14, No Iterations 1
diagonal:  Solving for rho, Initial residual = 0, Final residual = 0, No Iterations 0
time step continuity errors : sum local = 3.770975900337276e-16, global = 3.71636197337271e-16, cumulative = -2.918327109716946e-15
DILUPBiCG:  Solving for k, Initial residual = 0.2385158222499429, Final residual = 2.679487922295841e-20, No Iterations 2
ExecutionTime = 35.69 s  ClockTime = 55 s

ORIG_COMP_STEP = 5.614124999000005
ORIG_IO_STEP = 2.728436270000003
Courant Number mean: 1.234624193973297e-10 max: 6.224506732903099e-05
deltaT = 3.583180799999999e-09
Time = 1.54991e-08

PIMPLE: iteration 1
diagonal:  Solving for rho, Initial residual = 0, Final residual = 0, No Iterations 0
DILUPBiCG:  Solving for Ux, Initial residual = 0.2210519479820906, Final residual = 1.872604660549738e-20, No Iterations 2
DILUPBiCG:  Solving for Uy, Initial residual = 0.2210519479576951, Final residual = 2.808100190264619e-20, No Iterations 2
DILUPBiCG:  Solving for Uz, Initial residual = 0.06989951241241034, Final residual = 1.205509783675777e-20, No Iterations 2
DILUPBiCG:  Solving for e, Initial residual = 0.06988416966321692, Final residual = 4.536966670096974e-20, No Iterations 2
DILUPBiCG:  Solving for p, Initial residual = 0.06989548951077754, Final residual = 1.289775409472994e-10, No Iterations 1
diagonal:  Solving for rho, Initial residual = 0, Final residual = 0, No Iterations 0
time step continuity errors : sum local = 3.220342381489501e-16, global = 3.216638850431597e-16, cumulative = -2.596663224673786e-15
DILUPBiCG:  Solving for p, Initial residual = 1.016695510984822e-08, Final residual = 1.2609759850917e-14, No Iterations 1
diagonal:  Solving for rho, Initial residual = 0, Final residual = 0, No Iterations 0
time step continuity errors : sum local = 3.146124610636184e-16, global = 3.135296244836354e-16, cumulative = -2.28313360019015e-15
DILUPBiCG:  Solving for k, Initial residual = 0.2042783053775517, Final residual = 3.645586061857453e-20, No Iterations 2
ExecutionTime = 44.81 s  ClockTime = 67 s

ORIG_COMP_STEP = 9.127633275000001
ORIG_IO_STEP = 4.546857545000002
Courant Number mean: 1.481572278479725e-10 max: 7.468909815230526e-05
deltaT = 4.299816959999999e-09
Time = 1.97989e-08

PIMPLE: iteration 1
diagonal:  Solving for rho, Initial residual = 0, Final residual = 0, No Iterations 0
DILUPBiCG:  Solving for Ux, Initial residual = 0.2090173761278931, Final residual = 2.760692964878029e-20, No Iterations 2
DILUPBiCG:  Solving for Uy, Initial residual = 0.2090173760392551, Final residual = 4.066539859471939e-20, No Iterations 2
DILUPBiCG:  Solving for Uz, Initial residual = 0.06483314997462, Final residual = 1.785970883934976e-20, No Iterations 2
DILUPBiCG:  Solving for e, Initial residual = 0.06481486871917021, Final residual = 6.57868881234202e-20, No Iterations 2
DILUPBiCG:  Solving for p, Initial residual = 0.06482828646128132, Final residual = 1.724100723241047e-10, No Iterations 1
diagonal:  Solving for rho, Initial residual = 0, Final residual = 0, No Iterations 0
time step continuity errors : sum local = 1.388067652628833e-16, global = -6.819441397386447e-17, cumulative = -2.351328014164015e-15
DILUPBiCG:  Solving for p, Initial residual = 8.761964687400502e-09, Final residual = 1.209609985267329e-14, No Iterations 1
diagonal:  Solving for rho, Initial residual = 0, Final residual = 0, No Iterations 0
time step continuity errors : sum local = 1.372575913136134e-16, global = -8.66127212364105e-17, cumulative = -2.437940735400425e-15
DILUPBiCG:  Solving for k, Initial residual = 0.1805909976031355, Final residual = 5.239451483985178e-20, No Iterations 2
ExecutionTime = 52.41 s  ClockTime = 80 s

ORIG_COMP_STEP = 7.590230438999995
ORIG_IO_STEP = 3.467825609999991
Courant Number mean: 1.777920721972997e-10 max: 8.961976116517041e-05
deltaT = 5.159780351999998e-09
Time = 2.49587e-08

PIMPLE: iteration 1
diagonal:  Solving for rho, Initial residual = 0, Final residual = 0, No Iterations 0
DILUPBiCG:  Solving for Ux, Initial residual = 0.1997579947724391, Final residual = 4.183486585878893e-20, No Iterations 2
DILUPBiCG:  Solving for Uy, Initial residual = 0.199757994631092, Final residual = 6.03614696762499e-20, No Iterations 2
DILUPBiCG:  Solving for Uz, Initial residual = 0.06113782169733483, Final residual = 2.740537666359163e-20, No Iterations 2
DILUPBiCG:  Solving for e, Initial residual = 0.06111597830143795, Final residual = 9.872057392354033e-20, No Iterations 2
DILUPBiCG:  Solving for p, Initial residual = 0.06113200394875262, Final residual = 2.343601692795898e-10, No Iterations 1
diagonal:  Solving for rho, Initial residual = 0, Final residual = 0, No Iterations 0
time step continuity errors : sum local = 2.841167323960766e-16, global = -2.769705665209926e-16, cumulative = -2.714911301921418e-15
DILUPBiCG:  Solving for p, Initial residual = 5.959654196621271e-09, Final residual = 9.060708763696749e-15, No Iterations 1
diagonal:  Solving for rho, Initial residual = 0, Final residual = 0, No Iterations 0
time step continuity errors : sum local = 2.801923888941828e-16, global = -2.759276848054925e-16, cumulative = -2.99083898672691e-15
DILUPBiCG:  Solving for k, Initial residual = 0.1635155365048806, Final residual = 7.907832557939762e-20, No Iterations 2
ExecutionTime = 59.77 s  ClockTime = 91 s

ORIG_COMP_STEP = 7.343278011999999
ORIG_IO_STEP = 8.537443815000003
Courant Number mean: 2.133554705010925e-10 max: 0.000107533439730967
deltaT = 6.191736422399998e-09
Time = 3.11504e-08

PIMPLE: iteration 1
diagonal:  Solving for rho, Initial residual = 0, Final residual = 0, No Iterations 0
DILUPBiCG:  Solving for Ux, Initial residual = 0.1925420161858329, Final residual = 6.510730169379154e-20, No Iterations 2
DILUPBiCG:  Solving for Uy, Initial residual = 0.1925420160674236, Final residual = 9.237394805608186e-20, No Iterations 2
DILUPBiCG:  Solving for Uz, Initial residual = 0.05836292826112111, Final residual = 4.338344819407653e-20, No Iterations 2
DILUPBiCG:  Solving for e, Initial residual = 0.05833681304223552, Final residual = 1.52924415642328e-19, No Iterations 2
DILUPBiCG:  Solving for p, Initial residual = 0.05835595461221699, Final residual = 3.225641502809863e-10, No Iterations 1
diagonal:  Solving for rho, Initial residual = 0, Final residual = 0, No Iterations 0
time step continuity errors : sum local = 5.175419648368128e-16, global = -5.04234088585592e-16, cumulative = -3.495073075312502e-15
DILUPBiCG:  Solving for p, Initial residual = 4.023542339205663e-09, Final residual = 7.183805863043601e-15, No Iterations 1
diagonal:  Solving for rho, Initial residual = 0, Final residual = 0, No Iterations 0
time step continuity errors : sum local = 5.24037378612666e-16, global = -5.212916742890532e-16, cumulative = -4.016364749601555e-15
DILUPBiCG:  Solving for k, Initial residual = 0.1508058226570675, Final residual = 1.248759965421005e-19, No Iterations 2
ExecutionTime = 63.87 s  ClockTime = 103 s

ORIG_COMP_STEP = 4.010636696000006
ORIG_IO_STEP = 1.428843873000005
Courant Number mean: 2.560338970671625e-10 max: 0.0001290253889150599
deltaT = 7.430083706879997e-09
Time = 3.85805e-08

PIMPLE: iteration 1
diagonal:  Solving for rho, Initial residual = 0, Final residual = 0, No Iterations 0
DILUPBiCG:  Solving for Ux, Initial residual = 0.1868538216683577, Final residual = 1.04066643751818e-19, No Iterations 2
DILUPBiCG:  Solving for Uy, Initial residual = 0.186853821573418, Final residual = 1.476919330073501e-19, No Iterations 2
DILUPBiCG:  Solving for Uz, Initial residual = 0.05623297147347273, Final residual = 7.063792093102857e-20, No Iterations 2
DILUPBiCG:  Solving for e, Initial residual = 0.05620172222019867, Final residual = 2.442588252420984e-19, No Iterations 2
DILUPBiCG:  Solving for p, Initial residual = 0.05622463846722226, Final residual = 4.482185323152497e-10, No Iterations 1
diagonal:  Solving for rho, Initial residual = 0, Final residual = 0, No Iterations 0
time step continuity errors : sum local = 2.542034316781468e-16, global = 2.300221481362528e-16, cumulative = -3.786342601465302e-15
DILUPBiCG:  Solving for p, Initial residual = 5.122918986289343e-09, Final residual = 1.057588156772552e-14, No Iterations 1
diagonal:  Solving for rho, Initial residual = 0, Final residual = 0, No Iterations 0
time step continuity errors : sum local = 2.030185967208922e-16, global = 1.705244395096341e-16, cumulative = -3.615818161955668e-15
DILUPBiCG:  Solving for k, Initial residual = 0.141103770890309, Final residual = 2.058183644955114e-19, No Iterations 2
ExecutionTime = 75.25 s  ClockTime = 116 s

ORIG_COMP_STEP = 11.398187572
ORIG_IO_STEP = 3.427263658999991
Courant Number mean: 3.07251504921001e-10 max: 0.0001548093385833505
deltaT = 8.916100448255996e-09
Time = 4.74966e-08

PIMPLE: iteration 1
diagonal:  Solving for rho, Initial residual = 0, Final residual = 0, No Iterations 0
DILUPBiCG:  Solving for Ux, Initial residual = 0.1823252198198438, Final residual = 1.745923741569228e-19, No Iterations 2
DILUPBiCG:  Solving for Uy, Initial residual = 0.1823252197051589, Final residual = 2.438007497454949e-19, No Iterations 2
DILUPBiCG:  Solving for Uz, Initial residual = 0.05456992971923161, Final residual = 1.179860579036096e-19, No Iterations 2
DILUPBiCG:  Solving for e, Initial residual = 0.05453252243615024, Final residual = 4.021292049265252e-19, No Iterations 2
DILUPBiCG:  Solving for p, Initial residual = 0.05455995646876562, Final residual = 6.274913760441735e-10, No Iterations 1
diagonal:  Solving for rho, Initial residual = 0, Final residual = 0, No Iterations 0
time step continuity errors : sum local = 1.547487203527271e-16, global = -6.102602606640582e-17, cumulative = -3.676844188022074e-15
DILUPBiCG:  Solving for p, Initial residual = 4.849153105413853e-09, Final residual = 1.175961357503981e-14, No Iterations 1
diagonal:  Solving for rho, Initial residual = 0, Final residual = 0, No Iterations 0
time step continuity errors : sum local = 1.54015626546681e-16, global = -1.100825993672377e-16, cumulative = -3.786926787389312e-15
DILUPBiCG:  Solving for k, Initial residual = 0.1335467959425938, Final residual = 3.53400340717203e-19, No Iterations 2
ExecutionTime = 80.97 s  ClockTime = 125 s

ORIG_COMP_STEP = 5.638370545000001
ORIG_IO_STEP = 3.373191062999993
Courant Number mean: 3.687178649878435e-10 max: 0.000185740947167246
deltaT = 1.069932053790719e-08
Time = 5.81959e-08

PIMPLE: iteration 1
diagonal:  Solving for rho, Initial residual = 0, Final residual = 0, No Iterations 0
DILUPBiCG:  Solving for Ux, Initial residual = 0.1786887647821636, Final residual = 3.16810519766324e-19, No Iterations 2
DILUPBiCG:  Solving for Uy, Initial residual = 0.1786887646900653, Final residual = 4.158107877946508e-19, No Iterations 2
DILUPBiCG:  Solving for Uz, Initial residual = 0.05325359145763221, Final residual = 2.016152618916043e-19, No Iterations 2
DILUPBiCG:  Solving for e, Initial residual = 0.05320880561460283, Final residual = 6.823703301795595e-19, No Iterations 2
DILUPBiCG:  Solving for p, Initial residual = 0.0532416564032046, Final residual = 8.837310856597948e-10, No Iterations 1
diagonal:  Solving for rho, Initial residual = 0, Final residual = 0, No Iterations 0
time step continuity errors : sum local = 1.744735479417065e-16, global = -7.295820201650853e-17, cumulative = -3.85988498940582e-15
DILUPBiCG:  Solving for p, Initial residual = 3.508910704877242e-09, Final residual = 1.007280259001551e-14, No Iterations 1
diagonal:  Solving for rho, Initial residual = 0, Final residual = 0, No Iterations 0
time step continuity errors : sum local = 1.526452296766727e-16, global = -1.227072813137938e-16, cumulative = -3.982592270719614e-15
DILUPBiCG:  Solving for k, Initial residual = 0.1275639042356968, Final residual = 6.310823614635602e-19, No Iterations 2
ExecutionTime = 85.26000000000001 s  ClockTime = 133 s

ORIG_COMP_STEP = 4.189698249000003
ORIG_IO_STEP = 3.240885203999994
Courant Number mean: 4.424853672504201e-10 max: 0.0002228458487620229
deltaT = 1.283918464548863e-08
Time = 7.10351e-08

PIMPLE: iteration 1
diagonal:  Solving for rho, Initial residual = 0, Final residual = 0, No Iterations 0
DILUPBiCG:  Solving for Ux, Initial residual = 0.1757467246656398, Final residual = 5.935733163485181e-19, No Iterations 2
DILUPBiCG:  Solving for Uy, Initial residual = 0.1757467246171147, Final residual = 7.379870980676668e-19, No Iterations 2
DILUPBiCG:  Solving for Uz, Initial residual = 0.0521998172503605, Final residual = 3.513673112983789e-19, No Iterations 2
DILUPBiCG:  Solving for e, Initial residual = 0.05214614961223395, Final residual = 1.193571945383708e-18, No Iterations 2
DILUPBiCG:  Solving for p, Initial residual = 0.05218555316946306, Final residual = 1.250688002972691e-09, No Iterations 1
diagonal:  Solving for rho, Initial residual = 0, Final residual = 0, No Iterations 0
time step continuity errors : sum local = 4.823844199616877e-16, global = -3.880088758115715e-16, cumulative = -4.370601146531186e-15
DILUPBiCG:  Solving for p, Initial residual = 3.100735725832768e-09, Final residual = 1.059239158262419e-14, No Iterations 1
diagonal:  Solving for rho, Initial residual = 0, Final residual = 0, No Iterations 0
time step continuity errors : sum local = 4.290034096354464e-16, global = -4.289572546772546e-16, cumulative = -4.79955840120844e-15
DILUPBiCG:  Solving for k, Initial residual = 0.122763679307912, Final residual = 1.169882921778382e-18, No Iterations 2
ExecutionTime = 88.13 s  ClockTime = 139 s

ORIG_COMP_STEP = 2.847162052000016
ORIG_IO_STEP = 3.245052681000004
Courant Number mean: 5.310182840470928e-10 max: 0.0002673531757326267
deltaT = 1.540702157458636e-08
Time = 8.64421e-08

PIMPLE: iteration 1
diagonal:  Solving for rho, Initial residual = 0, Final residual = 0, No Iterations 0
DILUPBiCG:  Solving for Ux, Initial residual = 0.1733503985743564, Final residual = 1.1575062648654e-18, No Iterations 2
DILUPBiCG:  Solving for Uy, Initial residual = 0.1733503985687896, Final residual = 1.366575641659558e-18, No Iterations 2
DILUPBiCG:  Solving for Uz, Initial residual = 0.05134793187296811, Final residual = 6.221386731256894e-19, No Iterations 2
DILUPBiCG:  Solving for e, Initial residual = 0.05128367472915651, Final residual = 2.151991572598306e-18, No Iterations 2
DILUPBiCG:  Solving for p, Initial residual = 0.05133091617703047, Final residual = 1.777214579227982e-09, No Iterations 1
diagonal:  Solving for rho, Initial residual = 0, Final residual = 0, No Iterations 0
time step continuity errors : sum local = 3.227163111371115e-16, global = 3.082073160376148e-16, cumulative = -4.491351085170825e-15
DILUPBiCG:  Solving for p, Initial residual = 3.577153852102116e-09, Final residual = 1.459043299370938e-14, No Iterations 1
diagonal:  Solving for rho, Initial residual = 0, Final residual = 0, No Iterations 0
time step continuity errors : sum local = 2.418171241313819e-16, global = 2.340366733703009e-16, cumulative = -4.257314411800524e-15
DILUPBiCG:  Solving for k, Initial residual = 0.1188696863737038, Final residual = 2.246548056928452e-18, No Iterations 2
ExecutionTime = 91.48999999999999 s  ClockTime = 146 s

ORIG_COMP_STEP = 3.328235129999996
ORIG_IO_STEP = 2.210078441000007
Courant Number mean: 6.372759377261587e-10 max: 0.0003207356037221301
deltaT = 1.848842588950363e-08
Time = 1.04931e-07

PIMPLE: iteration 1
diagonal:  Solving for rho, Initial residual = 0, Final residual = 0, No Iterations 0
DILUPBiCG:  Solving for Ux, Initial residual = 0.1713861774411475, Final residual = 2.359081580403568e-18, No Iterations 2
DILUPBiCG:  Solving for Uy, Initial residual = 0.1713861774561037, Final residual = 2.678407041061695e-18, No Iterations 2
DILUPBiCG:  Solving for Uz, Initial residual = 0.05065305861556723, Final residual = 1.113360181770859e-18, No Iterations 2
DILUPBiCG:  Solving for e, Initial residual = 0.05057613458297659, Final residual = 3.998214439358749e-18, No Iterations 2
DILUPBiCG:  Solving for p, Initial residual = 0.0506327808776384, Final residual = 2.534141401120925e-09, No Iterations 1
diagonal:  Solving for rho, Initial residual = 0, Final residual = 0, No Iterations 0
time step continuity errors : sum local = 4.297058943959816e-16, global = 4.275512149926687e-16, cumulative = -3.829763196807856e-15
DILUPBiCG:  Solving for p, Initial residual = 4.065881202663237e-09, Final residual = 1.992066334808612e-14, No Iterations 1
diagonal:  Solving for rho, Initial residual = 0, Final residual = 0, No Iterations 0
time step continuity errors : sum local = 2.811508408066422e-16, global = 2.77050949092596e-16, cumulative = -3.55271224771526e-15
DILUPBiCG:  Solving for k, Initial residual = 0.1156816090479355, Final residual = 4.458092847304249e-18, No Iterations 2
ExecutionTime = 101.5 s  ClockTime = 158 s

ORIG_COMP_STEP = 10.02789976300002
ORIG_IO_STEP = 5.438291980000002
Courant Number mean: 7.648129722835579e-10 max: 0.0003847571616184501
deltaT = 2.218611106740435e-08
Time = 1.27117e-07

PIMPLE: iteration 1
diagonal:  Solving for rho, Initial residual = 0, Final residual = 0, No Iterations 0
DILUPBiCG:  Solving for Ux, Initial residual = 0.1697659847193882, Final residual = 4.929228587838605e-18, No Iterations 2
DILUPBiCG:  Solving for Uy, Initial residual = 0.1697659847333756, Final residual = 5.42588660970236e-18, No Iterations 2
DILUPBiCG:  Solving for Uz, Initial residual = 0.05008126763548831, Final residual = 1.999330498938345e-18, No Iterations 2
DILUPBiCG:  Solving for e, Initial residual = 0.0499891922318574, Final residual = 7.649277340414182e-18, No Iterations 2
DILUPBiCG:  Solving for p, Initial residual = 0.05005712947235915, Final residual = 3.624357946798781e-09, No Iterations 1
diagonal:  Solving for rho, Initial residual = 0, Final residual = 0, No Iterations 0
time step continuity errors : sum local = 4.912633341913678e-16, global = 1.672523588148141e-17, cumulative = -3.535987011833778e-15
DILUPBiCG:  Solving for p, Initial residual = 4.804275156162732e-09, Final residual = 2.842995011788451e-14, No Iterations 1
diagonal:  Solving for rho, Initial residual = 0, Final residual = 0, No Iterations 0
time step continuity errors : sum local = 2.49136036193625e-16, global = -2.305154173102027e-16, cumulative = -3.766502429143981e-15
DILUPBiCG:  Solving for k, Initial residual = 0.1130510224535482, Final residual = 9.117350061023876e-18, No Iterations 2
ExecutionTime = 104.72 s  ClockTime = 166 s

ORIG_COMP_STEP = 3.042620204999992
ORIG_IO_STEP = 1.732769347000016
Courant Number mean: 9.179004421128935e-10 max: 0.0004615302830703825
deltaT = 2.662333328088522e-08
Time = 1.5374e-07

PIMPLE: iteration 1
diagonal:  Solving for rho, Initial residual = 0, Final residual = 0, No Iterations 0
DILUPBiCG:  Solving for Ux, Initial residual = 0.1684205943483793, Final residual = 1.168643334842656e-17, No Iterations 2
DILUPBiCG:  Solving for Uy, Initial residual = 0.1684205943616419, Final residual = 1.21399393451292e-17, No Iterations 2
DILUPBiCG:  Solving for Uz, Initial residual = 0.04960639577128586, Final residual = 3.56404712178672e-18, No Iterations 2
DILUPBiCG:  Solving for e, Initial residual = 0.04949620271296135, Final residual = 1.505359752968262e-17, No Iterations 2
DILUPBiCG:  Solving for p, Initial residual = 0.04957770380194884, Final residual = 5.197644628801205e-09, No Iterations 1
diagonal:  Solving for rho, Initial residual = 0, Final residual = 0, No Iterations 0
time step continuity errors : sum local = 1.01776597069793e-15, global = -1.646988629453063e-16, cumulative = -3.931201292089287e-15
DILUPBiCG:  Solving for p, Initial residual = 6.334919195354655e-09, Final residual = 4.541751657277552e-14, No Iterations 1
diagonal:  Solving for rho, Initial residual = 0, Final residual = 0, No Iterations 0
time step continuity errors : sum local = 5.879477789673253e-16, global = -5.850258349301539e-16, cumulative = -4.516227127019441e-15
DILUPBiCG:  Solving for k, Initial residual = 0.1108658386651082, Final residual = 1.91613534372505e-17, No Iterations 2
ExecutionTime = 110.76 s  ClockTime = 174 s

ORIG_COMP_STEP = 6.031979779000011
ORIG_IO_STEP = 7.80796899500001
Courant Number mean: 1.101672360568219e-09 max: 0.0005535838593398188
deltaT = 3.194799993706226e-08
Time = 1.85688e-07

PIMPLE: iteration 1
diagonal:  Solving for rho, Initial residual = 0, Final residual = 0, No Iterations 0
DILUPBiCG:  Solving for Ux, Initial residual = 0.1672948891595308, Final residual = 3.279640279202371e-17, No Iterations 2
DILUPBiCG:  Solving for Uy, Initial residual = 0.1672948891682248, Final residual = 3.351768829758652e-17, No Iterations 2
DILUPBiCG:  Solving for Uz, Initial residual = 0.04920787829662591, Final residual = 6.194281610233203e-18, No Iterations 2
DILUPBiCG:  Solving for e, Initial residual = 0.04907605867721147, Final residual = 3.042933925956607e-17, No Iterations 2
DILUPBiCG:  Solving for p, Initial residual = 0.04917384493356398, Final residual = 7.472570297878911e-09, No Iterations 1
diagonal:  Solving for rho, Initial residual = 0, Final residual = 0, No Iterations 0
time step continuity errors : sum local = 8.673756463809138e-16, global = 7.080793224704125e-16, cumulative = -3.808147804549029e-15
DILUPBiCG:  Solving for p, Initial residual = 7.981365671623034e-09, Final residual = 6.979614116393357e-14, No Iterations 1
diagonal:  Solving for rho, Initial residual = 0, Final residual = 0, No Iterations 0
time step continuity errors : sum local = 1.149852086638239e-16, global = -4.740082516299453e-17, cumulative = -3.855548629712024e-15
DILUPBiCG:  Solving for k, Initial residual = 0.1090398957000955, Final residual = 4.126195647566335e-17, No Iterations 2
ExecutionTime = 114.17 s  ClockTime = 186 s

ORIG_COMP_STEP = 3.308701051000014
ORIG_IO_STEP = 3.349686448999989
Courant Number mean: 1.322303588062203e-09 max: 0.0006639444024474681
deltaT = 3.833759992447472e-08
Time = 2.24026e-07

PIMPLE: iteration 1
diagonal:  Solving for rho, Initial residual = 0, Final residual = 0, No Iterations 0
DILUPBiCG:  Solving for Ux, Initial residual = 0.1663444151208404, Final residual = 1.112589508740511e-16, No Iterations 2
DILUPBiCG:  Solving for Uy, Initial residual = 0.1663444151250519, Final residual = 1.124016244027736e-16, No Iterations 2
DILUPBiCG:  Solving for Uz, Initial residual = 0.04886928998839603, Final residual = 1.013685211835369e-17, No Iterations 2
DILUPBiCG:  Solving for e, Initial residual = 0.04871167197106292, Final residual = 6.306759616025739e-17, No Iterations 2
DILUPBiCG:  Solving for p, Initial residual = 0.04882900386321534, Final residual = 1.076895422349503e-08, No Iterations 1
diagonal:  Solving for rho, Initial residual = 0, Final residual = 0, No Iterations 0
time step continuity errors : sum local = 1.420736080055876e-15, global = 1.38676868006788e-15, cumulative = -2.468779949644144e-15
DILUPBiCG:  Solving for p, Initial residual = 1.101082923020344e-08, Final residual = 1.177760985467244e-13, No Iterations 1
diagonal:  Solving for rho, Initial residual = 0, Final residual = 0, No Iterations 0
time step continuity errors : sum local = 1.355386391359343e-16, global = 8.051245957926777e-17, cumulative = -2.388267490064876e-15
DILUPBiCG:  Solving for k, Initial residual = 0.1075059387717869, Final residual = 9.078041487630039e-17, No Iterations 2
ExecutionTime = 117.38 s  ClockTime = 192 s

ORIG_COMP_STEP = 3.161948840000008
ORIG_IO_STEP = 3.098114971000001
Courant Number mean: 1.587226623914051e-09 max: 0.0007962328698137064
deltaT = 4.600511990936966e-08
Time = 2.70031e-07

PIMPLE: iteration 1
diagonal:  Solving for rho, Initial residual = 0, Final residual = 0, No Iterations 0
DILUPBiCG:  Solving for Ux, Initial residual = 0.1655328481747768, Final residual = 1.933786017201235e-15, No Iterations 2
DILUPBiCG:  Solving for Uy, Initial residual = 0.1655328481781138, Final residual = 1.908699139546827e-15, No Iterations 2
DILUPBiCG:  Solving for Uz, Initial residual = 0.04857727214031473, Final residual = 1.432503834871399e-17, No Iterations 2
DILUPBiCG:  Solving for e, Initial residual = 0.04838891054913198, Final residual = 1.337541027000456e-16, No Iterations 2
DILUPBiCG:  Solving for p, Initial residual = 0.04852970949724546, Final residual = 1.55562261980461e-08, No Iterations 1
diagonal:  Solving for rho, Initial residual = 0, Final residual = 0, No Iterations 0
time step continuity errors : sum local = 2.495433191042104e-15, global = 1.976171331359725e-15, cumulative = -4.120961587051511e-16
DILUPBiCG:  Solving for p, Initial residual = 1.576939621161793e-08, Final residual = 2.070605409163626e-13, No Iterations 1
diagonal:  Solving for rho, Initial residual = 0, Final residual = 0, No Iterations 0
time step continuity errors : sum local = 2.62511131624367e-16, global = -2.545893914913377e-16, cumulative = -6.666855501964889e-16
DILUPBiCG:  Solving for k, Initial residual = 0.1062108298582925, Final residual = 2.035025848715229e-16, No Iterations 2
ExecutionTime = 120.85 s  ClockTime = 199 s

ORIG_COMP_STEP = 3.440670615999977
ORIG_IO_STEP = 5.401813011000002
Courant Number mean: 1.905397217523977e-09 max: 0.0009547802819188065
deltaT = 5.520614389124359e-08
Time = 3.25237e-07

PIMPLE: iteration 1
diagonal:  Solving for rho, Initial residual = 0, Final residual = 0, No Iterations 0
DILUPBiCG:  Solving for Ux, Initial residual = 0.1648300893974265, Final residual = 1.946964082829363e-16, No Iterations 2
DILUPBiCG:  Solving for Uy, Initial residual = 0.1648300893976127, Final residual = 1.904068071259773e-16, No Iterations 2
DILUPBiCG:  Solving for Uz, Initial residual = 0.04832074018449168, Final residual = 1.196557620694637e-17, No Iterations 2
DILUPBiCG:  Solving for e, Initial residual = 0.04809575553774856, Final residual = 2.896387279427214e-16, No Iterations 2
DILUPBiCG:  Solving for p, Initial residual = 0.04826475278978955, Final residual = 2.25257982745016e-08, No Iterations 1
diagonal:  Solving for rho, Initial residual = 0, Final residual = 0, No Iterations 0
time step continuity errors : sum local = 4.109474325042846e-15, global = 4.073073241719969e-15, cumulative = 3.40638769152348e-15
DILUPBiCG:  Solving for p, Initial residual = 2.283629511200694e-08, Final residual = 3.698965365155993e-13, No Iterations 1
diagonal:  Solving for rho, Initial residual = 0, Final residual = 0, No Iterations 0
time step continuity errors : sum local = 2.689526243181332e-16, global = 2.150312458144112e-16, cumulative = 3.621418937337892e-15
DILUPBiCG:  Solving for k, Initial residual = 0.1051120051467925, Final residual = 4.636499770007952e-16, No Iterations 2
ExecutionTime = 124.09 s  ClockTime = 208 s

ORIG_COMP_STEP = 3.129221518000008
ORIG_IO_STEP = 1.711218873000007
Courant Number mean: 2.287622078252672e-09 max: 0.001144766058994377
deltaT = 6.62473726694923e-08
Time = 3.91484e-07

PIMPLE: iteration 1
diagonal:  Solving for rho, Initial residual = 0, Final residual = 0, No Iterations 0
DILUPBiCG:  Solving for Ux, Initial residual = 0.1642108139480944, Final residual = 2.547606571014462e-16, No Iterations 2
DILUPBiCG:  Solving for Uy, Initial residual = 0.1642108139464201, Final residual = 2.597996479052187e-16, No Iterations 2
DILUPBiCG:  Solving for Uz, Initial residual = 0.04809030569410217, Final residual = 2.967386206844086e-17, No Iterations 2
DILUPBiCG:  Solving for e, Initial residual = 0.0478217975800004, Final residual = 6.389866125621632e-16, No Iterations 2
DILUPBiCG:  Solving for p, Initial residual = 0.04802468061298264, Final residual = 3.270001216565793e-08, No Iterations 1
diagonal:  Solving for rho, Initial residual = 0, Final residual = 0, No Iterations 0
time step continuity errors : sum local = 7.013630521678861e-15, global = 6.996759525339559e-15, cumulative = 1.061817846267745e-14
DILUPBiCG:  Solving for p, Initial residual = 3.346970472515624e-08, Final residual = 6.720291809953885e-13, No Iterations 1
diagonal:  Solving for rho, Initial residual = 0, Final residual = 0, No Iterations 0
time step continuity errors : sum local = 2.312455642344864e-16, global = 2.18674315867278e-16, cumulative = 1.083685277854473e-14
DILUPBiCG:  Solving for k, Initial residual = 0.104175009900499, Final residual = 1.071188767598897e-15, No Iterations 2
ExecutionTime = 133.84 s  ClockTime = 220 s

ORIG_COMP_STEP = 9.783417156000013
ORIG_IO_STEP = 5.798003148999982
Courant Number mean: 2.74696689037465e-09 max: 0.001372384141132096
deltaT = 7.949684720339076e-08
Time = 4.70981e-07

PIMPLE: iteration 1
diagonal:  Solving for rho, Initial residual = 0, Final residual = 0, No Iterations 0
DILUPBiCG:  Solving for Ux, Initial residual = 0.1636533488486719, Final residual = 1.425471516814637e-15, No Iterations 2
DILUPBiCG:  Solving for Uy, Initial residual = 0.1636533488451136, Final residual = 1.43322909260432e-15, No Iterations 2
DILUPBiCG:  Solving for Uz, Initial residual = 0.04787783833704148, Final residual = 2.017376136776844e-16, No Iterations 2
DILUPBiCG:  Solving for e, Initial residual = 0.04755770308366489, Final residual = 1.433038020605353e-15, No Iterations 2
DILUPBiCG:  Solving for p, Initial residual = 0.04780129784313763, Final residual = 4.759701326063339e-08, No Iterations 1
diagonal:  Solving for rho, Initial residual = 0, Final residual = 0, No Iterations 0
time step continuity errors : sum local = 1.204947349662143e-14, global = 1.201862269378127e-14, cumulative = 2.2855475472326e-14
DILUPBiCG:  Solving for p, Initial residual = 4.961017347801944e-08, Final residual = 4.738814208667478e-19, No Iterations 2
diagonal:  Solving for rho, Initial residual = 0, Final residual = 0, No Iterations 0
time step continuity errors : sum local = 1.463383805302493e-16, global = 1.227140397995099e-16, cumulative = 2.297818951212551e-14
DILUPBiCG:  Solving for k, Initial residual = 0.1033716719611472, Final residual = 2.504502195962838e-15, No Iterations 2
ExecutionTime = 137.37 s  ClockTime = 229 s

ORIG_COMP_STEP = 3.422464702000013
ORIG_IO_STEP = 2.164790207999999
Courant Number mean: 3.299270210822092e-09 max: 0.001645043660236682
deltaT = 9.53962166440689e-08
Time = 5.66377e-07

PIMPLE: iteration 1
diagonal:  Solving for rho, Initial residual = 0, Final residual = 0, No Iterations 0
DILUPBiCG:  Solving for Ux, Initial residual = 0.1631388013872096, Final residual = 5.196902502551623e-15, No Iterations 2
DILUPBiCG:  Solving for Uy, Initial residual = 0.1631388013836978, Final residual = 5.210383933438392e-15, No Iterations 2
DILUPBiCG:  Solving for Uz, Initial residual = 0.04767612719605412, Final residual = 8.279449048809696e-16, No Iterations 2
DILUPBiCG:  Solving for e, Initial residual = 0.04729490950093906, Final residual = 3.260125839392186e-15, No Iterations 2
DILUPBiCG:  Solving for p, Initial residual = 0.04758739303885895, Final residual = 6.94818420546647e-08, No Iterations 1
diagonal:  Solving for rho, Initial residual = 0, Final residual = 0, No Iterations 0
time step continuity errors : sum local = 2.132438884418217e-14, global = 2.13088386674484e-14, cumulative = 4.428702817957391e-14
DILUPBiCG:  Solving for p, Initial residual = 7.386018419249375e-08, Final residual = 1.543571655582143e-18, No Iterations 2
diagonal:  Solving for rho, Initial residual = 0, Final residual = 0, No Iterations 0
time step continuity errors : sum local = 5.059075702096897e-16, global = 4.976223101781784e-16, cumulative = 4.478465048975209e-14
DILUPBiCG:  Solving for k, Initial residual = 0.1026787464361396, Final residual = 5.915487204082855e-15, No Iterations 2
ExecutionTime = 144.76 s  ClockTime = 239 s

ORIG_COMP_STEP = 7.350424738999976
ORIG_IO_STEP = 3.40824843499999
Courant Number mean: 3.963800060941377e-09 max: 0.001971613580785865
deltaT = 1.144754599728827e-07
Time = 6.80853e-07

PIMPLE: iteration 1
diagonal:  Solving for rho, Initial residual = 0, Final residual = 0, No Iterations 0
DILUPBiCG:  Solving for Ux, Initial residual = 0.162650378950961, Final residual = 1.707697426648624e-14, No Iterations 2
DILUPBiCG:  Solving for Uy, Initial residual = 0.1626503789481527, Final residual = 1.710020622955772e-14, No Iterations 2
DILUPBiCG:  Solving for Uz, Initial residual = 0.04747862115135031, Final residual = 2.923679183882883e-15, No Iterations 2
DILUPBiCG:  Solving for e, Initial residual = 0.04702535169953297, Final residual = 7.508523872272428e-15, No Iterations 2
DILUPBiCG:  Solving for p, Initial residual = 0.04737651153397816, Final residual = 1.017510625829071e-07, No Iterations 1
diagonal:  Solving for rho, Initial residual = 0, Final residual = 0, No Iterations 0
time step continuity errors : sum local = 3.673161368466306e-14, global = 3.638199916512178e-14, cumulative = 8.116664965487387e-14
DILUPBiCG:  Solving for p, Initial residual = 1.108654774150452e-07, Final residual = 5.10623075949486e-18, No Iterations 2
diagonal:  Solving for rho, Initial residual = 0, Final residual = 0, No Iterations 0
time step continuity errors : sum local = 1.792668623942339e-16, global = -1.396150905851094e-16, cumulative = 8.102703456428875e-14
DILUPBiCG:  Solving for k, Initial residual = 0.1020768882286797, Final residual = 1.40932503658575e-14, No Iterations 2
ExecutionTime = 150.27 s  ClockTime = 247 s

ORIG_COMP_STEP = 5.479150284999974
ORIG_IO_STEP = 4.424090245999992
Courant Number mean: 4.764107406329606e-09 max: 0.002362724964296522
deltaT = 1.373705519674592e-07
Time = 8.18223e-07

PIMPLE: iteration 1
diagonal:  Solving for rho, Initial residual = 0, Final residual = 0, No Iterations 0
DILUPBiCG:  Solving for Ux, Initial residual = 0.1621728689966491, Final residual = 5.378196682782911e-14, No Iterations 2
DILUPBiCG:  Solving for Uy, Initial residual = 0.1621728689940811, Final residual = 5.382192265383204e-14, No Iterations 2
DILUPBiCG:  Solving for Uz, Initial residual = 0.04727922534912261, Final residual = 9.633211599462819e-15, No Iterations 2
DILUPBiCG:  Solving for e, Initial residual = 0.04674126748858988, Final residual = 1.747493048702375e-14, No Iterations 2
DILUPBiCG:  Solving for p, Initial residual = 0.04716279866097869, Final residual = 1.495254073491826e-07, No Iterations 1
diagonal:  Solving for rho, Initial residual = 0, Final residual = 0, No Iterations 0
time step continuity errors : sum local = 6.463651982421229e-14, global = 6.457885289945422e-14, cumulative = 1.45605887463743e-13
DILUPBiCG:  Solving for p, Initial residual = 1.674834995673693e-07, Final residual = 1.710758411678427e-17, No Iterations 2
diagonal:  Solving for rho, Initial residual = 0, Final residual = 0, No Iterations 0
time step continuity errors : sum local = 2.720544478706607e-16, global = 2.608611093742489e-16, cumulative = 1.458667485731172e-13
DILUPBiCG:  Solving for k, Initial residual = 0.1015499011530344, Final residual = 3.382333482850262e-14, No Iterations 2
ExecutionTime = 154.7 s  ClockTime = 256 s

ORIG_COMP_STEP = 4.396579749000011
ORIG_IO_STEP = 4.328396094999988
Courant Number mean: 5.729157945638672e-09 max: 0.002831151431704844
deltaT = 1.64844662360951e-07
Time = 9.83068e-07

PIMPLE: iteration 1
diagonal:  Solving for rho, Initial residual = 0, Final residual = 0, No Iterations 0
DILUPBiCG:  Solving for Ux, Initial residual = 0.1616922641805027, Final residual = 1.65778617945747e-13, No Iterations 2
DILUPBiCG:  Solving for Uy, Initial residual = 0.1616922641785199, Final residual = 1.658473027905748e-13, No Iterations 2
DILUPBiCG:  Solving for Uz, Initial residual = 0.04707219310815611, Final residual = 3.055775995690108e-14, No Iterations 2
DILUPBiCG:  Solving for e, Initial residual = 0.04643511540865784, Final residual = 4.102840940157746e-14, No Iterations 2
DILUPBiCG:  Solving for p, Initial residual = 0.04694093757196804, Final residual = 2.205678500208284e-07, No Iterations 1
diagonal:  Solving for rho, Initial residual = 0, Final residual = 0, No Iterations 0
time step continuity errors : sum local = 1.139369758602808e-13, global = 1.138116504491124e-13, cumulative = 2.596783990222296e-13
DILUPBiCG:  Solving for p, Initial residual = 2.543330717106919e-07, Final residual = 5.793786974791008e-17, No Iterations 2
diagonal:  Solving for rho, Initial residual = 0, Final residual = 0, No Iterations 0
time step continuity errors : sum local = 2.015081605607692e-16, global = 1.925682575958974e-16, cumulative = 2.598709672798255e-13
DILUPBiCG:  Solving for k, Initial residual = 0.1010841810073327, Final residual = 8.168173125464913e-14, No Iterations 2
ExecutionTime = 160.27 s  ClockTime = 266 s

ORIG_COMP_STEP = 5.551854882000043
ORIG_IO_STEP = 1.879845190000026
Courant Number mean: 6.894866665579219e-09 max: 0.003392299833640217
deltaT = 1.978135948331412e-07
Time = 1.18088e-06

PIMPLE: iteration 1
diagonal:  Solving for rho, Initial residual = 0, Final residual = 0, No Iterations 0
DILUPBiCG:  Solving for Ux, Initial residual = 0.1611955304301079, Final residual = 5.047643882598424e-13, No Iterations 2
DILUPBiCG:  Solving for Uy, Initial residual = 0.1611955304285022, Final residual = 5.048819492336678e-13, No Iterations 2
DILUPBiCG:  Solving for Uz, Initial residual = 0.04685203757422462, Final residual = 9.473197869939206e-14, No Iterations 2
DILUPBiCG:  Solving for e, Initial residual = 0.04609956093544942, Final residual = 9.702933287758885e-14, No Iterations 2
DILUPBiCG:  Solving for p, Initial residual = 0.04670615228618887, Final residual = 3.267122148744589e-07, No Iterations 1
diagonal:  Solving for rho, Initial residual = 0, Final residual = 0, No Iterations 0
time step continuity errors : sum local = 2.020686185546433e-13, global = 2.006539555145495e-13, cumulative = 4.605249227943751e-13
DILUPBiCG:  Solving for p, Initial residual = 3.880165822703487e-07, Final residual = 1.983086358742998e-16, No Iterations 2
diagonal:  Solving for rho, Initial residual = 0, Final residual = 0, No Iterations 0
time step continuity errors : sum local = 5.814784934085506e-16, global = -5.791744024769834e-16, cumulative = 4.59945748391898e-13
DILUPBiCG:  Solving for k, Initial residual = 0.100668261933573, Final residual = 1.98303717903748e-13, No Iterations 2
ExecutionTime = 167.42 s  ClockTime = 275 s

ORIG_COMP_STEP = 7.179610937000007
ORIG_IO_STEP = 7.611034426999993
Courant Number mean: 8.306228050752661e-09 max: 0.004064862143226222
deltaT = 2.373763137997695e-07
Time = 1.41826e-06

PIMPLE: iteration 1
diagonal:  Solving for rho, Initial residual = 0, Final residual = 0, No Iterations 0
DILUPBiCG:  Solving for Ux, Initial residual = 0.1606705339417747, Final residual = 1.861822660543034e-18, No Iterations 3
DILUPBiCG:  Solving for Uy, Initial residual = 0.1606705339404966, Final residual = 1.865765048671142e-18, No Iterations 3
DILUPBiCG:  Solving for Uz, Initial residual = 0.04661356795217204, Final residual = 2.893302342802397e-13, No Iterations 2
DILUPBiCG:  Solving for e, Initial residual = 0.04572760571403344, Final residual = 2.308268968920161e-13, No Iterations 2
DILUPBiCG:  Solving for p, Initial residual = 0.04645430728550087, Final residual = 4.860932743492797e-07, No Iterations 1
diagonal:  Solving for rho, Initial residual = 0, Final residual = 0, No Iterations 0
time step continuity errors : sum local = 3.585081847460991e-13, global = 3.57640522144027e-13, cumulative = 8.17586270535925e-13
DILUPBiCG:  Solving for p, Initial residual = 5.946556821265252e-07, Final residual = 6.866894383152949e-16, No Iterations 2
diagonal:  Solving for rho, Initial residual = 0, Final residual = 0, No Iterations 0
time step continuity errors : sum local = 1.278652827686487e-16, global = 2.04976396822194e-18, cumulative = 8.175883202998932e-13
DILUPBiCG:  Solving for k, Initial residual = 0.1002924923834957, Final residual = 4.836092351152484e-13, No Iterations 2
ExecutionTime = 170.8 s  ClockTime = 286 s

ORIG_COMP_STEP = 3.21043566000003
ORIG_IO_STEP = 4.564704806000009
Courant Number mean: 1.002034394578368e-08 max: 0.004871711166575937
deltaT = 2.848515765597234e-07
Time = 1.70311e-06

PIMPLE: iteration 1
diagonal:  Solving for rho, Initial residual = 0, Final residual = 0, No Iterations 0
DILUPBiCG:  Solving for Ux, Initial residual = 0.1601061568328245, Final residual = 9.55712414025893e-18, No Iterations 3
DILUPBiCG:  Solving for Uy, Initial residual = 0.1601061568316285, Final residual = 9.572573698384227e-18, No Iterations 3
DILUPBiCG:  Solving for Uz, Initial residual = 0.04635203042928892, Final residual = 8.745886529537357e-13, No Iterations 2
DILUPBiCG:  Solving for e, Initial residual = 0.04531285990996918, Final residual = 5.517337357276992e-13, No Iterations 2
DILUPBiCG:  Solving for p, Initial residual = 0.04618212265812602, Final residual = 7.266322303973246e-07, No Iterations 1
diagonal:  Solving for rho, Initial residual = 0, Final residual = 0, No Iterations 0
time step continuity errors : sum local = 6.399511740856936e-13, global = 6.381062097547291e-13, cumulative = 1.455694530054622e-12
DILUPBiCG:  Solving for p, Initial residual = 9.147010342667954e-07, Final residual = 2.404893928908536e-15, No Iterations 2
diagonal:  Solving for rho, Initial residual = 0, Final residual = 0, No Iterations 0
time step continuity errors : sum local = 1.529752086262028e-16, global = 1.220967253326483e-16, cumulative = 1.455816626779955e-12
DILUPBiCG:  Solving for k, Initial residual = 0.09994885837398905, Final residual = 3.640641013004591e-18, No Iterations 3
ExecutionTime = 175.06 s  ClockTime = 295 s

ORIG_COMP_STEP = 4.204170939999983
ORIG_IO_STEP = 1.230004312000005
Courant Number mean: 1.21108248208431e-08 max: 0.005841174881480025
deltaT = 3.41821891871668e-07
Time = 2.04493e-06

PIMPLE: iteration 1
diagonal:  Solving for rho, Initial residual = 0, Final residual = 0, No Iterations 0
DILUPBiCG:  Solving for Ux, Initial residual = 0.1594926457873281, Final residual = 4.882210587427206e-17, No Iterations 3
DILUPBiCG:  Solving for Uy, Initial residual = 0.1594926457862904, Final residual = 4.888656871399721e-17, No Iterations 3
DILUPBiCG:  Solving for Uz, Initial residual = 0.04606335021755739, Final residual = 5.064950354331671e-18, No Iterations 3
DILUPBiCG:  Solving for e, Initial residual = 0.04485005527445175, Final residual = 4.932154396243398e-18, No Iterations 3
DILUPBiCG:  Solving for p, Initial residual = 0.04588749857495643, Final residual = 1.091474452692089e-06, No Iterations 1
diagonal:  Solving for rho, Initial residual = 0, Final residual = 0, No Iterations 0
time step continuity errors : sum local = 1.146903297391474e-12, global = 1.141951992971139e-12, cumulative = 2.597768619751094e-12
DILUPBiCG:  Solving for p, Initial residual = 1.411334404073938e-06, Final residual = 8.526934174578235e-15, No Iterations 2
diagonal:  Solving for rho, Initial residual = 0, Final residual = 0, No Iterations 0
time step continuity errors : sum local = 1.909121124699085e-16, global = -1.708231526130209e-16, cumulative = 2.597597796598482e-12
DILUPBiCG:  Solving for k, Initial residual = 0.09963076914253324, Final residual = 1.52301307088829e-17, No Iterations 3
ExecutionTime = 181.8 s  ClockTime = 303 s

ORIG_COMP_STEP = 6.73541142900001
ORIG_IO_STEP = 2.250987700999985
Courant Number mean: 1.467431532478667e-08 max: 0.007008909701044588
deltaT = 4.101862702460016e-07
Time = 2.45512e-06

PIMPLE: iteration 1
diagonal:  Solving for rho, Initial residual = 0, Final residual = 0, No Iterations 0
DILUPBiCG:  Solving for Ux, Initial residual = 0.1588222512703726, Final residual = 2.48400648182652e-16, No Iterations 3
DILUPBiCG:  Solving for Uy, Initial residual = 0.1588222512696122, Final residual = 2.486947878641074e-16, No Iterations 3
DILUPBiCG:  Solving for Uz, Initial residual = 0.04574467796993428, Final residual = 2.519406055850013e-17, No Iterations 3
DILUPBiCG:  Solving for e, Initial residual = 0.04433586815496937, Final residual = 1.989202655114225e-17, No Iterations 3
DILUPBiCG:  Solving for p, Initial residual = 0.04556997536891983, Final residual = 1.647420867794316e-06, No Iterations 1
diagonal:  Solving for rho, Initial residual = 0, Final residual = 0, No Iterations 0
time step continuity errors : sum local = 2.063385779209837e-12, global = 2.051013051195386e-12, cumulative = 4.648610847793867e-12
DILUPBiCG:  Solving for p, Initial residual = 2.182255512704275e-06, Final residual = 3.065431912026821e-14, No Iterations 2
diagonal:  Solving for rho, Initial residual = 0, Final residual = 0, No Iterations 0
time step continuity errors : sum local = 1.874846498027907e-16, global = -1.676773670837589e-16, cumulative = 4.648443170426783e-12
DILUPBiCG:  Solving for k, Initial residual = 0.09933287191822637, Final residual = 6.389144649104661e-17, No Iterations 3
ExecutionTime = 189.52 s  ClockTime = 313 s

ORIG_COMP_STEP = 7.700783255000033
ORIG_IO_STEP = 3.406859988000008
Courant Number mean: 1.784032560313021e-08 max: 0.008420730798805705
deltaT = 4.922235242952019e-07
Time = 2.94734e-06

PIMPLE: iteration 1
diagonal:  Solving for rho, Initial residual = 0, Final residual = 0, No Iterations 0
DILUPBiCG:  Solving for Ux, Initial residual = 0.1580902163585758, Final residual = 1.258743766739152e-15, No Iterations 3
DILUPBiCG:  Solving for Uy, Initial residual = 0.1580902163578828, Final residual = 1.260244467083452e-15, No Iterations 3
DILUPBiCG:  Solving for Uz, Initial residual = 0.04539524118724426, Final residual = 1.247660935888023e-16, No Iterations 3
DILUPBiCG:  Solving for e, Initial residual = 0.04377011949049579, Final residual = 8.022109975517688e-17, No Iterations 3
DILUPBiCG:  Solving for p, Initial residual = 0.04523139426210179, Final residual = 2.497836917153273e-06, No Iterations 1
diagonal:  Solving for rho, Initial residual = 0, Final residual = 0, No Iterations 0
time step continuity errors : sum local = 3.725259298524431e-12, global = 3.693999780647139e-12, cumulative = 8.342442951073923e-12
DILUPBiCG:  Solving for p, Initial residual = 3.378287032278844e-06, Final residual = 1.120926036180118e-13, No Iterations 2
diagonal:  Solving for rho, Initial residual = 0, Final residual = 0, No Iterations 0
time step continuity errors : sum local = 1.308474997533713e-16, global = 1.70220511937656e-17, cumulative = 8.342459973125117e-12
DILUPBiCG:  Solving for k, Initial residual = 0.099050770325312, Final residual = 2.684417814232352e-16, No Iterations 3
ExecutionTime = 198.94 s  ClockTime = 326 s

ORIG_COMP_STEP = 9.417436409000004
ORIG_IO_STEP = 2.141142689999981
Courant Number mean: 2.178621068875347e-08 max: 0.01013697500785309
deltaT = 5.906682291542422e-07
Time = 3.53801e-06

PIMPLE: iteration 1
diagonal:  Solving for rho, Initial residual = 0, Final residual = 0, No Iterations 0
DILUPBiCG:  Solving for Ux, Initial residual = 0.1572961565773636, Final residual = 6.348735894634097e-15, No Iterations 3
DILUPBiCG:  Solving for Uy, Initial residual = 0.1572961565767787, Final residual = 6.357249316006335e-15, No Iterations 3
DILUPBiCG:  Solving for Uz, Initial residual = 0.04501746294766306, Final residual = 6.147435869975071e-16, No Iterations 3
DILUPBiCG:  Solving for e, Initial residual = 0.04315749597840909, Final residual = 3.223638531850386e-16, No Iterations 3
DILUPBiCG:  Solving for p, Initial residual = 0.04488030595823921, Final residual = 3.800861339039586e-06, No Iterations 1
diagonal:  Solving for rho, Initial residual = 0, Final residual = 0, No Iterations 0
time step continuity errors : sum local = 6.743709351698858e-12, global = 6.662325532417943e-12, cumulative = 1.500478550554306e-11
DILUPBiCG:  Solving for p, Initial residual = 5.230023965731625e-06, Final residual = 4.202274765559749e-13, No Iterations 2
diagonal:  Solving for rho, Initial residual = 0, Final residual = 0, No Iterations 0
time step continuity errors : sum local = 2.772300169425684e-16, global = 2.659443945084848e-16, cumulative = 1.500505144993757e-11
DILUPBiCG:  Solving for k, Initial residual = 0.09878049581836139, Final residual = 1.127840638173027e-15, No Iterations 3
ExecutionTime = 207.07 s  ClockTime = 336 s

ORIG_COMP_STEP = 8.145902666999973
ORIG_IO_STEP = 1.293797487000006
Courant Number mean: 2.675996837707623e-08 max: 0.01223925477548993
deltaT = 7.088018749850907e-07
Time = 4.24681e-06

PIMPLE: iteration 1
diagonal:  Solving for rho, Initial residual = 0, Final residual = 0, No Iterations 0
DILUPBiCG:  Solving for Ux, Initial residual = 0.1564459277118062, Final residual = 3.182296267930783e-14, No Iterations 3
DILUPBiCG:  Solving for Uy, Initial residual = 0.1564459277113998, Final residual = 3.187493322083722e-14, No Iterations 3
DILUPBiCG:  Solving for Uz, Initial residual = 0.04461867169319043, Final residual = 3.010354707481916e-15, No Iterations 3
DILUPBiCG:  Solving for e, Initial residual = 0.04251059453530603, Final residual = 1.284391153000667e-15, No Iterations 3
DILUPBiCG:  Solving for p, Initial residual = 0.04452820266727552, Final residual = 5.796106651520534e-06, No Iterations 1
diagonal:  Solving for rho, Initial residual = 0, Final residual = 0, No Iterations 0
time step continuity errors : sum local = 1.222251451593186e-11, global = 1.200828355395782e-11, cumulative = 2.701333500389539e-11
DILUPBiCG:  Solving for p, Initial residual = 8.087339170743331e-06, Final residual = 1.937490390830333e-16, No Iterations 3
diagonal:  Solving for rho, Initial residual = 0, Final residual = 0, No Iterations 0
time step continuity errors : sum local = 2.120469334308067e-16, global = -1.948362383291228e-16, cumulative = 2.701314016765706e-11
DILUPBiCG:  Solving for k, Initial residual = 0.09851750423072254, Final residual = 4.728611990052103e-15, No Iterations 3
ExecutionTime = 223.65 s  ClockTime = 354 s

ORIG_COMP_STEP = 16.65748490500005
ORIG_IO_STEP = 4.310133091000012
Courant Number mean: 3.311482390902085e-08 max: 0.01484090786029179
deltaT = 8.505622499821088e-07
Time = 5.09737e-06

PIMPLE: iteration 1
diagonal:  Solving for rho, Initial residual = 0, Final residual = 0, No Iterations 0
DILUPBiCG:  Solving for Ux, Initial residual = 0.1555535925682793, Final residual = 1.581346629695389e-13, No Iterations 3
DILUPBiCG:  Solving for Uy, Initial residual = 0.1555535925680304, Final residual = 1.584670624415305e-13, No Iterations 3
DILUPBiCG:  Solving for Uz, Initial residual = 0.04421327114778356, Final residual = 1.463249539137944e-14, No Iterations 3
DILUPBiCG:  Solving for e, Initial residual = 0.04185223915846898, Final residual = 5.050073102002079e-15, No Iterations 3
DILUPBiCG:  Solving for p, Initial residual = 0.04418267826393311, Final residual = 8.843786678957238e-06, No Iterations 1
diagonal:  Solving for rho, Initial residual = 0, Final residual = 0, No Iterations 0
time step continuity errors : sum local = 2.214682631358117e-11, global = 2.158422845252956e-11, cumulative = 4.859736862018662e-11
DILUPBiCG:  Solving for p, Initial residual = 1.247581378297598e-05, Final residual = 9.363906497182519e-16, No Iterations 3
diagonal:  Solving for rho, Initial residual = 0, Final residual = 0, No Iterations 0
time step continuity errors : sum local = 2.941343451040603e-16, global = 2.287538931526473e-16, cumulative = 4.859759737407978e-11
DILUPBiCG:  Solving for k, Initial residual = 0.09825486085795912, Final residual = 1.973009585702409e-14, No Iterations 3
ExecutionTime = 226.91 s  ClockTime = 362 s

ORIG_COMP_STEP = 3.205326993000028
ORIG_IO_STEP = 3.34387114499998
Courant Number mean: 4.13619281365724e-08 max: 0.01810325951783841
deltaT = 1.02067469997853e-06
Time = 6.11805e-06

PIMPLE: iteration 1
diagonal:  Solving for rho, Initial residual = 0, Final residual = 0, No Iterations 0
DILUPBiCG:  Solving for Ux, Initial residual = 0.1546427278253507, Final residual = 7.765639997224696e-13, No Iterations 3
DILUPBiCG:  Solving for Uy, Initial residual = 0.1546427278257777, Final residual = 7.787710885812411e-13, No Iterations 3
DILUPBiCG:  Solving for Uz, Initial residual = 0.04382537634403957, Final residual = 7.052532358081214e-14, No Iterations 3
DILUPBiCG:  Solving for e, Initial residual = 0.04121618913742305, Final residual = 1.943583365335767e-14, No Iterations 3
DILUPBiCG:  Solving for p, Initial residual = 0.04386342389529972, Final residual = 1.345686709578762e-05, No Iterations 1
diagonal:  Solving for rho, Initial residual = 0, Final residual = 0, No Iterations 0
time step continuity errors : sum local = 3.999001554885565e-11, global = 3.851280168520855e-11, cumulative = 8.711039905928833e-11
DILUPBiCG:  Solving for p, Initial residual = 1.915975274003101e-05, Final residual = 4.53879187055838e-15, No Iterations 3
diagonal:  Solving for rho, Initial residual = 0, Final residual = 0, No Iterations 0
time step continuity errors : sum local = 1.842466923003156e-16, global = -3.928056901191977e-17, cumulative = 8.711035977871931e-11
DILUPBiCG:  Solving for k, Initial residual = 0.09798021290359692, Final residual = 8.161314969691854e-14, No Iterations 3
ExecutionTime = 231.03 s  ClockTime = 369 s

ORIG_COMP_STEP = 4.072211637999999
ORIG_IO_STEP = 3.72633403399999
Courant Number mean: 5.224846015815779e-08 max: 0.0222601811248356
deltaT = 1.224809639974236e-06
Time = 7.34286e-06

PIMPLE: iteration 1
diagonal:  Solving for rho, Initial residual = 0, Final residual = 0, No Iterations 0
DILUPBiCG:  Solving for Ux, Initial residual = 0.1537465907746715, Final residual = 3.683000039466198e-15, No Iterations 4
DILUPBiCG:  Solving for Uy, Initial residual = 0.153746590777993, Final residual = 3.683056632447111e-15, No Iterations 4
DILUPBiCG:  Solving for Uz, Initial residual = 0.04349142275963952, Final residual = 3.368330597493432e-13, No Iterations 3
DILUPBiCG:  Solving for e, Initial residual = 0.04065069543674436, Final residual = 7.214023802045904e-14, No Iterations 3
DILUPBiCG:  Solving for p, Initial residual = 0.04359231819390993, Final residual = 2.031798129736269e-05, No Iterations 1
diagonal:  Solving for rho, Initial residual = 0, Final residual = 0, No Iterations 0
time step continuity errors : sum local = 7.161246240178787e-11, global = 6.776528448620073e-11, cumulative = 1.5487564426492e-10
DILUPBiCG:  Solving for p, Initial residual = 2.918244651390592e-05, Final residual = 2.206089109638232e-14, No Iterations 3
diagonal:  Solving for rho, Initial residual = 0, Final residual = 0, No Iterations 0
time step continuity errors : sum local = 1.701154769596514e-16, global = -8.501718883002664e-17, cumulative = 1.548755592477312e-10
DILUPBiCG:  Solving for k, Initial residual = 0.09767113728793551, Final residual = 3.327990029751043e-13, No Iterations 3
ExecutionTime = 235.68 s  ClockTime = 378 s

ORIG_COMP_STEP = 4.601894690999984
ORIG_IO_STEP = 3.490855103999991
Courant Number mean: 6.686956426454926e-08 max: 0.02765364928117847
deltaT = 1.469771567969084e-06
Time = 8.81263e-06

PIMPLE: iteration 1
diagonal:  Solving for rho, Initial residual = 0, Final residual = 0, No Iterations 0
DILUPBiCG:  Solving for Ux, Initial residual = 0.1529051041103977, Final residual = 2.951139124384108e-14, No Iterations 4
DILUPBiCG:  Solving for Uy, Initial residual = 0.1529051041216245, Final residual = 2.951153245676999e-14, No Iterations 4
DILUPBiCG:  Solving for Uz, Initial residual = 0.04326189883712948, Final residual = 2.667902470514935e-15, No Iterations 4
DILUPBiCG:  Solving for e, Initial residual = 0.04021674145426773, Final residual = 2.512243767420747e-13, No Iterations 3
DILUPBiCG:  Solving for p, Initial residual = 0.04338969920770677, Final residual = 3.024703738892941e-05, No Iterations 1
diagonal:  Solving for rho, Initial residual = 0, Final residual = 0, No Iterations 0
time step continuity errors : sum local = 1.263985292687245e-10, global = 1.164054901511776e-10, cumulative = 2.712810493989088e-10
DILUPBiCG:  Solving for p, Initial residual = 4.374820131427925e-05, Final residual = 1.073142616529494e-13, No Iterations 3
diagonal:  Solving for rho, Initial residual = 0, Final residual = 0, No Iterations 0
time step continuity errors : sum local = 1.999877200913413e-16, global = -1.009258660506034e-16, cumulative = 2.712809484730428e-10
DILUPBiCG:  Solving for k, Initial residual = 0.0972890560601385, Final residual = 1.251008822041612e-16, No Iterations 4
ExecutionTime = 239.98 s  ClockTime = 386 s

ORIG_COMP_STEP = 4.265082382000003
ORIG_IO_STEP = 3.139023055999985
Courant Number mean: 8.682139845880168e-08 max: 0.03478176451420985
deltaT = 1.7637258815629e-06
Time = 1.05764e-05

PIMPLE: iteration 1
diagonal:  Solving for rho, Initial residual = 0, Final residual = 0, No Iterations 0
DILUPBiCG:  Solving for Ux, Initial residual = 0.152156067383858, Final residual = 2.249432921481004e-13, No Iterations 4
DILUPBiCG:  Solving for Uy, Initial residual = 0.1521560674210678, Final residual = 2.24934681011617e-13, No Iterations 4
DILUPBiCG:  Solving for Uz, Initial residual = 0.04320004014934459, Final residual = 1.98839803417976e-14, No Iterations 4
DILUPBiCG:  Solving for e, Initial residual = 0.03997958595815261, Final residual = 7.707448472486267e-13, No Iterations 3
DILUPBiCG:  Solving for p, Initial residual = 0.04326645536686965, Final residual = 4.394306218797409e-05, No Iterations 1
diagonal:  Solving for rho, Initial residual = 0, Final residual = 0, No Iterations 0
time step continuity errors : sum local = 2.176862810076542e-10, global = 1.923557248603427e-10, cumulative = 4.636366733333855e-10
DILUPBiCG:  Solving for p, Initial residual = 6.356501748761619e-05, Final residual = 5.395865120826266e-13, No Iterations 3
diagonal:  Solving for rho, Initial residual = 0, Final residual = 0, No Iterations 0
time step continuity errors : sum local = 1.995748173707558e-16, global = -4.270500837878368e-17, cumulative = 4.636366306283771e-10
DILUPBiCG:  Solving for k, Initial residual = 0.09677296494164141, Final residual = 8.214654822036268e-16, No Iterations 4
ExecutionTime = 243.44 s  ClockTime = 393 s

ORIG_COMP_STEP = 3.449098042000003
ORIG_IO_STEP = 2.713701523999987
Courant Number mean: 1.143994204199346e-07 max: 0.04435549242704674
deltaT = 2.11647105787548e-06
Time = 1.26928e-05

PIMPLE: iteration 1
diagonal:  Solving for rho, Initial residual = 0, Final residual = 0, No Iterations 0
DILUPBiCG:  Solving for Ux, Initial residual = 0.1515186471247624, Final residual = 5.441106056795237e-16, No Iterations 5
DILUPBiCG:  Solving for Uy, Initial residual = 0.1515186472460648, Final residual = 5.789458027263551e-16, No Iterations 5
DILUPBiCG:  Solving for Uz, Initial residual = 0.04337476509334221, Final residual = 1.384476847162488e-13, No Iterations 4
DILUPBiCG:  Solving for e, Initial residual = 0.03998894734239054, Final residual = 8.325859967672721e-16, No Iterations 4
DILUPBiCG:  Solving for p, Initial residual = 0.04321222775869381, Final residual = 6.193662796978881e-05, No Iterations 1
diagonal:  Solving for rho, Initial residual = 0, Final residual = 0, No Iterations 0
time step continuity errors : sum local = 3.637021966647864e-10, global = 2.998966689437262e-10, cumulative = 7.635332995721034e-10
DILUPBiCG:  Solving for p, Initial residual = 8.729776324966819e-05, Final residual = 1.712156015749305e-14, No Iterations 4
diagonal:  Solving for rho, Initial residual = 0, Final residual = 0, No Iterations 0
time step continuity errors : sum local = 1.635996502649019e-16, global = 2.176413254241345e-17, cumulative = 7.635333213362359e-10
DILUPBiCG:  Solving for k, Initial residual = 0.09603629807321681, Final residual = 5.40117262813096e-15, No Iterations 4
ExecutionTime = 247.47 s  ClockTime = 400 s

ORIG_COMP_STEP = 3.951459195000041
ORIG_IO_STEP = 2.201402320999989
Courant Number mean: 1.528471475747442e-07 max: 0.05734720907359556
deltaT = 2.539765269450577e-06
Time = 1.52326e-05

PIMPLE: iteration 1
diagonal:  Solving for rho, Initial residual = 0, Final residual = 0, No Iterations 0
DILUPBiCG:  Solving for Ux, Initial residual = 0.1509719140354096, Final residual = 9.575828141378506e-15, No Iterations 5
DILUPBiCG:  Solving for Uy, Initial residual = 0.1509719144057543, Final residual = 1.013216506906209e-14, No Iterations 5
DILUPBiCG:  Solving for Uz, Initial residual = 0.04384552355917617, Final residual = 8.939662286102578e-13, No Iterations 4
DILUPBiCG:  Solving for e, Initial residual = 0.0402455753207203, Final residual = 1.102008090039191e-16, No Iterations 4
DILUPBiCG:  Solving for p, Initial residual = 0.04318391146605811, Final residual = 8.518905908806844e-05, No Iterations 1
diagonal:  Solving for rho, Initial residual = 0, Final residual = 0, No Iterations 0
time step continuity errors : sum local = 5.929218077694879e-10, global = 4.33850411957779e-10, cumulative = 1.197383733294015e-09
DILUPBiCG:  Solving for p, Initial residual = 0.0001145460775471847, Final residual = 4.989734783816679e-14, No Iterations 4
diagonal:  Solving for rho, Initial residual = 0, Final residual = 0, No Iterations 0
time step continuity errors : sum local = 1.672834244931302e-16, global = 8.702014438768118e-17, cumulative = 1.197383820314159e-09
DILUPBiCG:  Solving for k, Initial residual = 0.09497371407012117, Final residual = 3.400897469991571e-14, No Iterations 4
ExecutionTime = 255.63 s  ClockTime = 410 s

ORIG_COMP_STEP = 8.143143606000024
ORIG_IO_STEP = 3.750770215999978
Courant Number mean: 2.066962153499773e-07 max: 0.07498893939020475
deltaT = 3.047718323340692e-06
Time = 1.82803e-05

PIMPLE: iteration 1
diagonal:  Solving for rho, Initial residual = 0, Final residual = 0, No Iterations 0
DILUPBiCG:  Solving for Ux, Initial residual = 0.150443547125396, Final residual = 1.433717868344496e-13, No Iterations 5
DILUPBiCG:  Solving for Uy, Initial residual = 0.1504435481273577, Final residual = 1.499137899329819e-13, No Iterations 5
DILUPBiCG:  Solving for Uz, Initial residual = 0.04463944745182977, Final residual = 2.781145826168142e-14, No Iterations 5
DILUPBiCG:  Solving for e, Initial residual = 0.04066265674535793, Final residual = 9.458792534061208e-14, No Iterations 4
DILUPBiCG:  Solving for p, Initial residual = 0.0431059703377614, Final residual = 0.0001121884278597919, No Iterations 1
diagonal:  Solving for rho, Initial residual = 0, Final residual = 0, No Iterations 0
time step continuity errors : sum local = 9.252015071059927e-10, global = 5.899804812090938e-10, cumulative = 1.787364301523253e-09
DILUPBiCG:  Solving for p, Initial residual = 0.0001484214481310223, Final residual = 6.543977402169312e-13, No Iterations 4
diagonal:  Solving for rho, Initial residual = 0, Final residual = 0, No Iterations 0
time step continuity errors : sum local = 1.883841163454614e-16, global = 1.459876378834834e-17, cumulative = 1.787364316122017e-09
DILUPBiCG:  Solving for k, Initial residual = 0.09348660611178365, Final residual = 2.022264461337185e-13, No Iterations 4
ExecutionTime = 259.25 s  ClockTime = 418 s

ORIG_COMP_STEP = 3.602767650000033
ORIG_IO_STEP = 3.473449985000002
Courant Number mean: 2.823712595469714e-07 max: 0.09864690880266294
deltaT = 3.65726198800883e-06
Time = 2.19376e-05

PIMPLE: iteration 1
diagonal:  Solving for rho, Initial residual = 0, Final residual = 0, No Iterations 0
DILUPBiCG:  Solving for Ux, Initial residual = 0.149840364350755, Final residual = 6.191601007214137e-15, No Iterations 6
DILUPBiCG:  Solving for Uy, Initial residual = 0.1498403665378019, Final residual = 6.228275404510533e-15, No Iterations 6
[...]
ExecutionTime = 1432.42 s  ClockTime = 10575 s

ORIG_COMP_STEP = 18.86453971099945
ORIG_IO_STEP = 101.3292013360006
Courant Number mean: 4.344507344154935e-06 max: 0.2001730567493616
deltaT = 2.740091760367845e-06
Time = 0.000170549

PIMPLE: iteration 1
diagonal:  Solving for rho, Initial residual = 0, Final residual = 0, No Iterations 0
DILUPBiCG:  Solving for Ux, Initial residual = 0.01634283718554926, Final residual = 4.356727893965424e-13, No Iterations 5
DILUPBiCG:  Solving for Uy, Initial residual = 0.01634282880096566, Final residual = 4.419396865406815e-13, No Iterations 5
DILUPBiCG:  Solving for Uz, Initial residual = 0.008072266131123234, Final residual = 2.62784051503321e-13, No Iterations 5
DILUPBiCG:  Solving for e, Initial residual = 0.01129318750214674, Final residual = 9.275429963044382e-15, No Iterations 5
DILUPBiCG:  Solving for p, Initial residual = 0.01468490040998669, Final residual = 3.342468478407308e-05, No Iterations 1
diagonal:  Solving for rho, Initial residual = 0, Final residual = 0, No Iterations 0
time step continuity errors : sum local = 2.725627499079696e-09, global = -6.941951526362682e-10, cumulative = -1.011027217263801e-08
DILUPBiCG:  Solving for p, Initial residual = 0.0001213297771733538, Final residual = 1.839061595118256e-14, No Iterations 5
diagonal:  Solving for rho, Initial residual = 0, Final residual = 0, No Iterations 0
time step continuity errors : sum local = 1.713549095458916e-16, global = 6.884840030715467e-17, cumulative = -1.011027210378961e-08
DILUPBiCG:  Solving for k, Initial residual = 0.009101504084741641, Final residual = 4.770942521998199e-13, No Iterations 5
ExecutionTime = 1439.12 s  ClockTime = 10699 s

ORIG_COMP_STEP = 5.736307765000674
ORIG_IO_STEP = 100.2941477450004
Courant Number mean: 4.446549754805771e-06 max: 0.1996720068968783
deltaT = 2.744592797910793e-06
Time = 0.000173294

PIMPLE: iteration 1
diagonal:  Solving for rho, Initial residual = 0, Final residual = 0, No Iterations 0
DILUPBiCG:  Solving for Ux, Initial residual = 0.01619986041610711, Final residual = 3.873271212219291e-13, No Iterations 5
DILUPBiCG:  Solving for Uy, Initial residual = 0.01619986315628362, Final residual = 3.793417853286241e-13, No Iterations 5
DILUPBiCG:  Solving for Uz, Initial residual = 0.00800834321873296, Final residual = 2.443866035350044e-13, No Iterations 5
DILUPBiCG:  Solving for e, Initial residual = 0.01123478965160627, Final residual = 9.498412537286925e-15, No Iterations 5
DILUPBiCG:  Solving for p, Initial residual = 0.01463072654316766, Final residual = 3.365764386607829e-05, No Iterations 1
diagonal:  Solving for rho, Initial residual = 0, Final residual = 0, No Iterations 0
time step continuity errors : sum local = 2.793330777983333e-09, global = -7.390157440840047e-10, cumulative = -1.084928784787362e-08
DILUPBiCG:  Solving for p, Initial residual = 0.0001059815743918775, Final residual = 1.030389127187221e-14, No Iterations 5
diagonal:  Solving for rho, Initial residual = 0, Final residual = 0, No Iterations 0
time step continuity errors : sum local = 1.748844328598706e-16, global = 8.284536392821597e-17, cumulative = -1.084928776502825e-08
DILUPBiCG:  Solving for k, Initial residual = 0.009158294352733406, Final residual = 7.258138717655584e-15, No Iterations 6
ExecutionTime = 1458.49 s  ClockTime = 10823 s

ORIG_COMP_STEP = 18.56549351799913
ORIG_IO_STEP = 80.16706022700055
Courant Number mean: 4.561926103828423e-06 max: 0.1995709567022189
deltaT = 2.750493201278786e-06
Time = 0.000176044

PIMPLE: iteration 1
diagonal:  Solving for rho, Initial residual = 0, Final residual = 0, No Iterations 0
DILUPBiCG:  Solving for Ux, Initial residual = 0.01607105035954419, Final residual = 3.468013754405123e-13, No Iterations 5
DILUPBiCG:  Solving for Uy, Initial residual = 0.01607104491133615, Final residual = 3.3667102181528e-13, No Iterations 5
DILUPBiCG:  Solving for Uz, Initial residual = 0.007961785418657193, Final residual = 2.307608944175619e-13, No Iterations 5
DILUPBiCG:  Solving for e, Initial residual = 0.01117096329648784, Final residual = 8.704905885909169e-13, No Iterations 4
DILUPBiCG:  Solving for p, Initial residual = 0.01457834215755704, Final residual = 3.423134671043273e-05, No Iterations 1
diagonal:  Solving for rho, Initial residual = 0, Final residual = 0, No Iterations 0
time step continuity errors : sum local = 2.89082057111748e-09, global = -8.400685252344156e-10, cumulative = -1.168935629026267e-08
DILUPBiCG:  Solving for p, Initial residual = 0.0001105343972277704, Final residual = 1.165462454613453e-13, No Iterations 5
diagonal:  Solving for rho, Initial residual = 0, Final residual = 0, No Iterations 0
time step continuity errors : sum local = 1.771291109198315e-16, global = 5.65243094522e-17, cumulative = -1.168935623373836e-08
DILUPBiCG:  Solving for k, Initial residual = 0.00918592168226409, Final residual = 4.711333287960213e-13, No Iterations 5
ExecutionTime = 1465.3 s  ClockTime = 10925 s

ORIG_COMP_STEP = 6.040000510998652
ORIG_IO_STEP = 97.93835426599981
Courant Number mean: 4.68147980065343e-06 max: 0.199619227430204
deltaT = 2.755739751813707e-06
Time = 0.0001788

PIMPLE: iteration 1
diagonal:  Solving for rho, Initial residual = 0, Final residual = 0, No Iterations 0
DILUPBiCG:  Solving for Ux, Initial residual = 0.01592359758232241, Final residual = 3.153481859245264e-13, No Iterations 5
DILUPBiCG:  Solving for Uy, Initial residual = 0.01592359196097868, Final residual = 3.058754802894322e-13, No Iterations 5
DILUPBiCG:  Solving for Uz, Initial residual = 0.007904996315019648, Final residual = 2.183577609258331e-13, No Iterations 5
DILUPBiCG:  Solving for e, Initial residual = 0.0111716012100743, Final residual = 7.698681874804799e-13, No Iterations 4
DILUPBiCG:  Solving for p, Initial residual = 0.01458218939933621, Final residual = 3.36401663382994e-05, No Iterations 1
diagonal:  Solving for rho, Initial residual = 0, Final residual = 0, No Iterations 0
time step continuity errors : sum local = 2.890193951675619e-09, global = -8.161564777869431e-10, cumulative = -1.25055127115253e-08
DILUPBiCG:  Solving for p, Initial residual = 0.00010456942763262, Final residual = 1.43015279960433e-13, No Iterations 5
diagonal:  Solving for rho, Initial residual = 0, Final residual = 0, No Iterations 0
time step continuity errors : sum local = 1.88530077769752e-16, global = 7.954454050287599e-17, cumulative = -1.250551263198076e-08
DILUPBiCG:  Solving for k, Initial residual = 0.009188628418526785, Final residual = 3.62069391616163e-13, No Iterations 5
ExecutionTime = 1472.69 s  ClockTime = 11044 s

ORIG_COMP_STEP = 6.49113200300053
ORIG_IO_STEP = 85.13523624300069
Courant Number mean: 4.800724737777699e-06 max: 0.1994613678582483
deltaT = 2.763181443508522e-06
Time = 0.000181563

PIMPLE: iteration 1
diagonal:  Solving for rho, Initial residual = 0, Final residual = 0, No Iterations 0
DILUPBiCG:  Solving for Ux, Initial residual = 0.01577911202190204, Final residual = 2.977143776975984e-13, No Iterations 5
DILUPBiCG:  Solving for Uy, Initial residual = 0.01577911466321798, Final residual = 2.886211706118363e-13, No Iterations 5
DILUPBiCG:  Solving for Uz, Initial residual = 0.007826942224792336, Final residual = 2.091354773298529e-13, No Iterations 5
DILUPBiCG:  Solving for e, Initial residual = 0.01124304488814936, Final residual = 7.741043882646187e-13, No Iterations 4
DILUPBiCG:  Solving for p, Initial residual = 0.01458920733919026, Final residual = 3.32987285725116e-05, No Iterations 1
diagonal:  Solving for rho, Initial residual = 0, Final residual = 0, No Iterations 0
time step continuity errors : sum local = 2.909847906085486e-09, global = -8.086908566174461e-10, cumulative = -1.331420348859821e-08
DILUPBiCG:  Solving for p, Initial residual = 0.0001091191419032245, Final residual = 2.110125181727057e-14, No Iterations 5
diagonal:  Solving for rho, Initial residual = 0, Final residual = 0, No Iterations 0
time step continuity errors : sum local = 1.761793670832883e-16, global = -8.145859899207337e-17, cumulative = -1.331420357005681e-08
DILUPBiCG:  Solving for k, Initial residual = 0.009176744614508498, Final residual = 1.427005884648719e-14, No Iterations 5
ExecutionTime = 1495.45 s  ClockTime = 11167 s

ORIG_COMP_STEP = 22.05345029199998
ORIG_IO_STEP = 87.10455968099996
Courant Number mean: 4.925155889002366e-06 max: 0.1990573957028574
deltaT = 2.776266045028784e-06
Time = 0.000184339

PIMPLE: iteration 1
diagonal:  Solving for rho, Initial residual = 0, Final residual = 0, No Iterations 0
DILUPBiCG:  Solving for Ux, Initial residual = 0.01565899566412159, Final residual = 2.939431010494069e-13, No Iterations 5
DILUPBiCG:  Solving for Uy, Initial residual = 0.01565898540809972, Final residual = 2.839872680087691e-13, No Iterations 5
DILUPBiCG:  Solving for Uz, Initial residual = 0.007788843730995444, Final residual = 2.055619558099772e-13, No Iterations 5
DILUPBiCG:  Solving for e, Initial residual = 0.01121863959724399, Final residual = 8.112220329595621e-13, No Iterations 4
DILUPBiCG:  Solving for p, Initial residual = 0.01452253016980023, Final residual = 3.327510747289681e-05, No Iterations 1
diagonal:  Solving for rho, Initial residual = 0, Final residual = 0, No Iterations 0
time step continuity errors : sum local = 2.956989563006607e-09, global = -8.378495235144337e-10, cumulative = -1.415205309357124e-08
DILUPBiCG:  Solving for p, Initial residual = 0.0001077157927285682, Final residual = 4.915954111652799e-14, No Iterations 5
diagonal:  Solving for rho, Initial residual = 0, Final residual = 0, No Iterations 0
time step continuity errors : sum local = 1.694796883100731e-16, global = -3.912339663002027e-17, cumulative = -1.415205313269464e-08
DILUPBiCG:  Solving for k, Initial residual = 0.009161151671163138, Final residual = 1.565079525761416e-14, No Iterations 5
ExecutionTime = 1509.12 s  ClockTime = 11278 s

ORIG_COMP_STEP = 12.90784523699949
ORIG_IO_STEP = 99.10072277599829
Courant Number mean: 5.062099515965033e-06 max: 0.1984548381818642
deltaT = 2.797881946808066e-06
Time = 0.000187137

PIMPLE: iteration 1
diagonal:  Solving for rho, Initial residual = 0, Final residual = 0, No Iterations 0
DILUPBiCG:  Solving for Ux, Initial residual = 0.01562080887483298, Final residual = 2.986721091742076e-13, No Iterations 5
DILUPBiCG:  Solving for Uy, Initial residual = 0.01562080535375502, Final residual = 2.887059694870128e-13, No Iterations 5
DILUPBiCG:  Solving for Uz, Initial residual = 0.00779189883261787, Final residual = 2.084268775973016e-13, No Iterations 5
DILUPBiCG:  Solving for e, Initial residual = 0.01125025098173169, Final residual = 2.913616464163739e-14, No Iterations 5
DILUPBiCG:  Solving for p, Initial residual = 0.01463249356363329, Final residual = 3.360833488845002e-05, No Iterations 1
diagonal:  Solving for rho, Initial residual = 0, Final residual = 0, No Iterations 0
time step continuity errors : sum local = 3.036748732638318e-09, global = -8.676773965378851e-10, cumulative = -1.501973052923252e-08
DILUPBiCG:  Solving for p, Initial residual = 0.0001060713128292904, Final residual = 4.380754623272288e-14, No Iterations 5
diagonal:  Solving for rho, Initial residual = 0, Final residual = 0, No Iterations 0
time step continuity errors : sum local = 1.697022024469804e-16, global = 2.196865351159979e-17, cumulative = -1.501973050726387e-08
DILUPBiCG:  Solving for k, Initial residual = 0.009180230822314412, Final residual = 2.15753627423483e-14, No Iterations 5
ExecutionTime = 1516.36 s  ClockTime = 11397 s

ORIG_COMP_STEP = 6.32321074399988
ORIG_IO_STEP = 89.42202728800112
Courant Number mean: 5.217742014347981e-06 max: 0.2007214971519838
deltaT = 2.787824908150751e-06
Time = 0.000189925

PIMPLE: iteration 1
diagonal:  Solving for rho, Initial residual = 0, Final residual = 0, No Iterations 0
DILUPBiCG:  Solving for Ux, Initial residual = 0.01545012042959079, Final residual = 2.865000774782915e-13, No Iterations 5
DILUPBiCG:  Solving for Uy, Initial residual = 0.01545010493515765, Final residual = 2.782577835093266e-13, No Iterations 5
DILUPBiCG:  Solving for Uz, Initial residual = 0.007701521351218442, Final residual = 2.013766795579887e-13, No Iterations 5
DILUPBiCG:  Solving for e, Initial residual = 0.01123719715661314, Final residual = 2.83465335029506e-14, No Iterations 5
DILUPBiCG:  Solving for p, Initial residual = 0.01453217963281498, Final residual = 3.244528812951912e-05, No Iterations 1
diagonal:  Solving for rho, Initial residual = 0, Final residual = 0, No Iterations 0
time step continuity errors : sum local = 2.980407338233168e-09, global = -8.026642189224482e-10, cumulative = -1.582239472618632e-08
DILUPBiCG:  Solving for p, Initial residual = 0.0001085520426477601, Final residual = 1.637078206968974e-14, No Iterations 5
diagonal:  Solving for rho, Initial residual = 0, Final residual = 0, No Iterations 0
time step continuity errors : sum local = 1.735487089485335e-16, global = 7.1718887569208e-17, cumulative = -1.582239465446743e-08
DILUPBiCG:  Solving for k, Initial residual = 0.009121713794475536, Final residual = 3.928122824112936e-14, No Iterations 5
ExecutionTime = 1536.87 s  ClockTime = 11509 s

ORIG_COMP_STEP = 19.82975695200003
ORIG_IO_STEP = 79.30176443799974
Courant Number mean: 5.315060597962757e-06 max: 0.2018910932887141
deltaT = 2.76171163644551e-06
Time = 0.000192687

PIMPLE: iteration 1
diagonal:  Solving for rho, Initial residual = 0, Final residual = 0, No Iterations 0
DILUPBiCG:  Solving for Ux, Initial residual = 0.01520644474348494, Final residual = 2.607292722335675e-13, No Iterations 5
DILUPBiCG:  Solving for Uy, Initial residual = 0.0152064337333035, Final residual = 2.562171627623088e-13, No Iterations 5
DILUPBiCG:  Solving for Uz, Initial residual = 0.007565671197861139, Final residual = 1.869344913307242e-13, No Iterations 5
DILUPBiCG:  Solving for e, Initial residual = 0.0111007253018706, Final residual = 2.424380730633208e-14, No Iterations 5
DILUPBiCG:  Solving for p, Initial residual = 0.01439853551767734, Final residual = 3.169096788251172e-05, No Iterations 1
diagonal:  Solving for rho, Initial residual = 0, Final residual = 0, No Iterations 0
time step continuity errors : sum local = 2.958571022546225e-09, global = -8.049720910022271e-10, cumulative = -1.662736674546966e-08
DILUPBiCG:  Solving for p, Initial residual = 0.0001006327151140542, Final residual = 2.031326637548441e-14, No Iterations 5
diagonal:  Solving for rho, Initial residual = 0, Final residual = 0, No Iterations 0
time step continuity errors : sum local = 1.648954900608496e-16, global = -6.583123781435306e-18, cumulative = -1.662736675205278e-08
DILUPBiCG:  Solving for k, Initial residual = 0.009042280816274895, Final residual = 2.762226343687382e-14, No Iterations 5
ExecutionTime = 1546.12 s  ClockTime = 11612 s

ORIG_COMP_STEP = 8.497949893999248
ORIG_IO_STEP = 95.05603664999944
Courant Number mean: 5.378036858495803e-06 max: 0.2016378985337716
deltaT = 2.73927833659003e-06
Time = 0.000195426

PIMPLE: iteration 1
diagonal:  Solving for rho, Initial residual = 0, Final residual = 0, No Iterations 0
DILUPBiCG:  Solving for Ux, Initial residual = 0.01496738888340092, Final residual = 2.368744238622122e-13, No Iterations 5
DILUPBiCG:  Solving for Uy, Initial residual = 0.01496736974665623, Final residual = 2.348878719558723e-13, No Iterations 5
DILUPBiCG:  Solving for Uz, Initial residual = 0.007422915472580702, Final residual = 1.724498263520504e-13, No Iterations 5
DILUPBiCG:  Solving for e, Initial residual = 0.0109942878363292, Final residual = 2.742265842276144e-14, No Iterations 5
DILUPBiCG:  Solving for p, Initial residual = 0.01416474575741269, Final residual = 3.050115454412381e-05, No Iterations 1
diagonal:  Solving for rho, Initial residual = 0, Final residual = 0, No Iterations 0
time step continuity errors : sum local = 2.893354320984435e-09, global = -8.024842686105102e-10, cumulative = -1.742985102066329e-08
DILUPBiCG:  Solving for p, Initial residual = 0.0001045649457748191, Final residual = 1.638410103731022e-14, No Iterations 5
diagonal:  Solving for rho, Initial residual = 0, Final residual = 0, No Iterations 0
time step continuity errors : sum local = 1.623234642749631e-16, global = -1.429667512884592e-17, cumulative = -1.742985103495996e-08
DILUPBiCG:  Solving for k, Initial residual = 0.008987113642207112, Final residual = 2.87774257236621e-14, No Iterations 5
ExecutionTime = 1556.06 s  ClockTime = 11728 s

ORIG_COMP_STEP = 9.076705998999387
ORIG_IO_STEP = 118.7952315950006
Courant Number mean: 5.444724604398982e-06 max: 0.2007915967023957
deltaT = 2.728479061452011e-06
Time = 0.000198155

PIMPLE: iteration 1
diagonal:  Solving for rho, Initial residual = 0, Final residual = 0, No Iterations 0
DILUPBiCG:  Solving for Ux, Initial residual = 0.01477827898478873, Final residual = 2.232734260847454e-13, No Iterations 5
DILUPBiCG:  Solving for Uy, Initial residual = 0.01477828408059608, Final residual = 2.216763638119418e-13, No Iterations 5
DILUPBiCG:  Solving for Uz, Initial residual = 0.007326097410066446, Final residual = 1.617653875329252e-13, No Iterations 5
DILUPBiCG:  Solving for e, Initial residual = 0.01087856014221195, Final residual = 9.374440728949293e-14, No Iterations 5
DILUPBiCG:  Solving for p, Initial residual = 0.01402253534332487, Final residual = 3.003741993404814e-05, No Iterations 1
diagonal:  Solving for rho, Initial residual = 0, Final residual = 0, No Iterations 0
time step continuity errors : sum local = 2.895103666778132e-09, global = -8.245756977526043e-10, cumulative = -1.825442673271257e-08
DILUPBiCG:  Solving for p, Initial residual = 9.709299875065269e-05, Final residual = 2.253386332053481e-14, No Iterations 5
diagonal:  Solving for rho, Initial residual = 0, Final residual = 0, No Iterations 0
time step continuity errors : sum local = 1.74998985187099e-16, global = -8.488227136544956e-17, cumulative = -1.825442681759484e-08
DILUPBiCG:  Solving for k, Initial residual = 0.008970667021793412, Final residual = 5.360948088371007e-13, No Iterations 5
ExecutionTime = 1575.79 s  ClockTime = 11870 s

ORIG_COMP_STEP = 18.79832556499969
ORIG_IO_STEP = 80.68477625199921
Courant Number mean: 5.534209692861536e-06 max: 0.2003265165002668
deltaT = 2.724031854712917e-06
Time = 0.000200879

PIMPLE: iteration 1
diagonal:  Solving for rho, Initial residual = 0, Final residual = 0, No Iterations 0
DILUPBiCG:  Solving for Ux, Initial residual = 0.01464914908249263, Final residual = 2.192058238847096e-13, No Iterations 5
DILUPBiCG:  Solving for Uy, Initial residual = 0.01464916160036786, Final residual = 2.157140190129842e-13, No Iterations 5
DILUPBiCG:  Solving for Uz, Initial residual = 0.00727419586275318, Final residual = 1.533542125207487e-13, No Iterations 5
DILUPBiCG:  Solving for e, Initial residual = 0.01085632925803562, Final residual = 1.484421091100605e-13, No Iterations 5
DILUPBiCG:  Solving for p, Initial residual = 0.01395668032986009, Final residual = 2.979464223000269e-05, No Iterations 1
diagonal:  Solving for rho, Initial residual = 0, Final residual = 0, No Iterations 0
time step continuity errors : sum local = 2.917563774001556e-09, global = -8.422676397860625e-10, cumulative = -1.90966944573809e-08
DILUPBiCG:  Solving for p, Initial residual = 9.666094737689415e-05, Final residual = 1.063691243025095e-14, No Iterations 5
diagonal:  Solving for rho, Initial residual = 0, Final residual = 0, No Iterations 0
time step continuity errors : sum local = 1.625001419524895e-16, global = -4.266268972648259e-17, cumulative = -1.909669450004359e-08
DILUPBiCG:  Solving for k, Initial residual = 0.008982150600158407, Final residual = 2.85721456238836e-13, No Iterations 5
ExecutionTime = 1595.4 s  ClockTime = 11973 s

ORIG_COMP_STEP = 18.99563992799995
ORIG_IO_STEP = 103.2195721539993
End

ORIG_IO_TIME = 8485.404227794952
ORIG_COMP_TIME = 684.4330234056953
Finalising parallel run
