/*---------------------------------------------------------------------------*\
| =========                 |                                                 |
| \\      /  F ield         | OpenFOAM: The Open Source CFD Toolbox           |
|  \\    /   O peration     | Version:  v1912                                 |
|   \\  /    A nd           | Website:  www.openfoam.com                      |
|    \\/     M anipulation  |                                                 |
\*---------------------------------------------------------------------------*/
Build  : _f3950763fe-20191219 OPENFOAM=1912
Arch   : "LSB;label=32;scalar=64"
Exec   : rhoPimpleFoam_METRICS -parallel
Date   : Oct 27 2020
Time   : 18:47:35
Host   : r33c1t1n3
PID    : 133357
I/O    : uncollated
Case   : /lustre/cray/ws9/2/ws/hpcmcast-ashee2/HAWK/apio_128M/2048
nProcs : 2048
Hosts  :
(
    (r33c1t1n3 128)
    (r35c1t4n1 128)
    (r35c1t4n4 128)
    (r35c1t6n2 128)
    (r36c4t8n3 128)
    (r39c1t2n3 128)
    (r39c1t4n2 128)
    (r39c1t6n3 128)
    (r39c1t6n4 128)
    (r39c1t7n3 128)
    (r41c1t1n4 128)
    (r41c1t2n2 128)
    (r41c1t2n3 128)
    (r41c1t5n3 128)
    (r42c3t1n1 128)
    (r42c3t7n1 128)
)
Pstream initialized with:
    floatTransfer      : 0
    nProcsSimpleSum    : 0
    commsType          : nonBlocking
    polling iterations : 0
trapFpe: Floating point exception trapping enabled (FOAM_SIGFPE).
fileModificationChecking : Monitoring run-time modified files using timeStampMaster (fileModificationSkew 10)
allowSystemOperations : Allowing user-supplied system call operations

// * * * * * * * * * * * * * * * * * * * * * * * * * * * * * * * * * * * * * //
Create time

Create mesh for time = 0


PIMPLE: Operating solver in PISO mode

Reading thermophysical properties

Selecting thermodynamics package 
{
    type            hePsiThermo;
    mixture         pureMixture;
    transport       const;
    thermo          eConst;
    equationOfState perfectGas;
    specie          specie;
    energy          sensibleInternalEnergy;
}

Reading field U

Reading/calculating face flux field phi

--> FOAM Warning : 
    From function Foam::pressureControl::pressureControl(const volScalarField&, const volScalarField&, const Foam::dictionary&, bool)
    in file cfdTools/general/pressureControl/pressureControl.C at line 123
    Reading "/lustre/cray/ws9/2/ws/hpcmcast-ashee2/HAWK/apio_128M/2048/system/fvSolution.PIMPLE"
    'rhoMax' specified rather than 'pMax' or 'pMaxFactor'
    This is supported for backward-compatibility but 'pMax' or 'pMaxFactor' are more reliable.
--> FOAM Warning : 
    From function Foam::pressureControl::pressureControl(const volScalarField&, const volScalarField&, const Foam::dictionary&, bool)
    in file cfdTools/general/pressureControl/pressureControl.C at line 178
    Reading "/lustre/cray/ws9/2/ws/hpcmcast-ashee2/HAWK/apio_128M/2048/system/fvSolution.PIMPLE"
    'rhoMin' specified rather than 'pMin' or 'pMinFactor'
    This is supported for backward-compatibility but 'pMin' or 'pMinFactor' are more reliable.
pressureControl
    pMax 1726187.557059955
    pMin 4747.015781914877

Creating turbulence model

Selecting turbulence model type LES
Selecting LES turbulence model kEqn
Selecting LES delta type cubeRootVol
LES
{
    LESModel        kEqn;
    turbulence      on;
    printCoeffs     on;
    delta           cubeRootVol;
    cubeRootVolCoeffs
    {
        deltaCoeff      1;
    }
    PrandtlCoeffs
    {
        delta           cubeRootVol;
        cubeRootVolCoeffs
        {
            deltaCoeff      1;
        }
        smoothCoeffs
        {
            delta           cubeRootVol;
            cubeRootVolCoeffs
            {
                deltaCoeff      1;
            }
            maxDeltaRatio   1.1;
        }
        Cdelta          0.158;
    }
    vanDriestCoeffs
    {
        delta           cubeRootVol;
        cubeRootVolCoeffs
        {
            deltaCoeff      1;
        }
        smoothCoeffs
        {
            delta           cubeRootVol;
            cubeRootVolCoeffs
            {
                deltaCoeff      1;
            }
            maxDeltaRatio   1.1;
        }
        Aplus           26;
        Cdelta          0.158;
    }
    smoothCoeffs
    {
        delta           cubeRootVol;
        cubeRootVolCoeffs
        {
            deltaCoeff      1;
        }
        maxDeltaRatio   1.1;
    }
    Ce              1.048;
    Ck              0.094;
}

Creating field dpdt

Creating field kinetic energy K

No MRF models present

procNo = 78
procNo = 79
procNo = 80
procNo = 81
procNo = 82
procNo = 83
procNo = 84
procNo = 85
procNo = 86
procNo = 87
procNo = 88
procNo = 89
procNo = 90
procNo = 91
procNo = 92
procNo = 93
procNo = 94
procNo = 95
procNo = 96
procNo = 97
procNo = 98
procNo = 99
procNo = 100
procNo = 101
procNo = 102
procNo = 103
procNo = 104
procNo = 105
procNo = 106
procNo = 107
procNo = 108
procNo = 109
procNo = 110
procNo = 111
procNo = 112
procNo = 113
procNo = 114
procNo = 115
procNo = 116
procNo = 117
procNo = 118
procNo = 119
procNo = 120
procNo = 121
procNo = 122
procNo = 123
procNo = 124
procNo = 125
procNo = 126
procNo = 127
No finite volume options present
procNo = 0
masterNo = 0
procNo = 1
procNo = 2
procNo = 3
procNo = 4
procNo = 5
procNo = 6
procNo = 7
procNo = 8
procNo = 9
procNo = 10
procNo = 11
procNo = 12
procNo = 13
procNo = 14
procNo = 15
procNo = 16
procNo = 17
procNo = 18
procNo = 19
procNo = 20
procNo = 21
procNo = 22
procNo = 23
procNo = 24
procNo = 25
procNo = 26
procNo = 27
procNo = 28
procNo = 29
procNo = 30
procNo = 31
procNo = 32
procNo = 33
procNo = 34
procNo = 35
procNo = 36
procNo = 37
procNo = 38
procNo = 39
procNo = 40
procNo = 41
procNo = 42
procNo = 43
procNo = 44
procNo = 45
procNo = 46
procNo = 47
procNo = 48
procNo = 49
procNo = 50
procNo = 51
procNo = 52
procNo = 53
procNo = 54
procNo = 55
procNo = 56
procNo = 57
procNo = 58
procNo = 59
procNo = 60
procNo = 61
procNo = 62
procNo = 63
procNo = 64
procNo = 65
procNo = 66
procNo = 67
procNo = 68
procNo = 69
procNo = 70
procNo = 71
procNo = 72
procNo = 73
procNo = 74
procNo = 75
procNo = 76
procNo = 77
procNo = 512
procNo = 1280
procNo = 384
procNo = 1024
procNo = 256
procNo = 896
procNo = 768
procNo = 1152
procNo = 1408
procNo = 1664
procNo = 128
procNo = 513
procNo = 1281
procNo = 640
procNo = 385
procNo = 1025
procNo = 257
procNo = 897
procNo = 769
procNo = 1153
procNo = 1409
procNo = 1920
procNo = 1536
procNo = 1665
procNo = 1792
procNo = 129
procNo = 514
procNo = 1282
procNo = 641
procNo = 386
procNo = 1026
procNo = 258
procNo = 898
procNo = 770
procNo = 1154
procNo = 1410
procNo = 1921
procNo = 1537
procNo = 1666
procNo = 1793
procNo = 130
procNo = 515
procNo = 1283
procNo = 642
procNo = 387
procNo = 1027
procNo = 259
procNo = 899
procNo = 771
procNo = 1155
procNo = 1411
procNo = 1922
procNo = 1538
procNo = 1667
procNo = 1794
procNo = 131
procNo = 516
procNo = 1284
procNo = 643
procNo = 388
procNo = 1028
procNo = 260
procNo = 900
procNo = 772
procNo = 1156
procNo = 1412
procNo = 1923
procNo = 1539
procNo = 1668
procNo = 1795
procNo = 132
procNo = 517
procNo = 1285
procNo = 644
procNo = 389
procNo = 1029
procNo = 261
procNo = 901
procNo = 773
procNo = 1157
procNo = 1413
procNo = 1924
procNo = 1540
procNo = 1669
procNo = 1796
procNo = 133
procNo = 518
procNo = 1286
procNo = 645
procNo = 390
procNo = 1030
procNo = 262
procNo = 902
procNo = 774
procNo = 1158
procNo = 1414
procNo = 1925
procNo = 1541
procNo = 1670
procNo = 1797
procNo = 134
procNo = 519
procNo = 1287
procNo = 646
procNo = 391
procNo = 1031
procNo = 263
procNo = 903
procNo = 775
procNo = 1159
procNo = 1415
procNo = 1926
procNo = 1542
procNo = 1671
procNo = 1798
procNo = 135
procNo = 520
procNo = 1288
procNo = 647
procNo = 392
procNo = 1032
procNo = 264
procNo = 904
procNo = 776
procNo = 1160
procNo = 1416
procNo = 1927
procNo = 1543
procNo = 1672
procNo = 1799
procNo = 136
procNo = 521
procNo = 1289
procNo = 648
procNo = 393
procNo = 1033
procNo = 265
procNo = 905
procNo = 777
procNo = 1161
procNo = 1417
procNo = 1928
procNo = 1544
procNo = 1673
procNo = 1800
procNo = 137
procNo = 522
procNo = 1290
procNo = 649
procNo = 394
procNo = 1034
procNo = 266
procNo = 906
procNo = 778
procNo = 1162
procNo = 1418
procNo = 1929
procNo = 1545
procNo = 1674
procNo = 1801
procNo = 138
procNo = 523
procNo = 1291
procNo = 650
procNo = 395
procNo = 1035
procNo = 267
procNo = 907
procNo = 779
procNo = 1163
procNo = 1419
procNo = 1930
procNo = 1546
procNo = 1675
procNo = 1802
procNo = 139
procNo = 524
procNo = 1292
procNo = 651
procNo = 396
procNo = 1036
procNo = 268
procNo = 908
procNo = 780
procNo = 1164
procNo = 1420
procNo = 1931
procNo = 1547
procNo = 1676
procNo = 1803
procNo = 140
procNo = 525
procNo = 1293
procNo = 652
procNo = 397
procNo = 1037
procNo = 269
procNo = 909
procNo = 781
procNo = 1165
procNo = 1421
procNo = 1932
procNo = 1548
procNo = 1677
procNo = 1804
procNo = 141
procNo = 526
procNo = 1294
procNo = 653
procNo = 398
procNo = 1038
procNo = 270
procNo = 910
procNo = 782
procNo = 1166
procNo = 1422
procNo = 1933
procNo = 1549
procNo = 1678
procNo = 1805
procNo = 142
procNo = 527
procNo = 1295
procNo = 654
procNo = 399
procNo = 1039
procNo = 271
procNo = 911
procNo = 783
procNo = 1167
procNo = 1423
procNo = 1934
procNo = 1550
procNo = 1679
procNo = 1806
procNo = 143
procNo = 528
procNo = 1296
procNo = 655
procNo = 400
procNo = 1040
procNo = 272
procNo = 912
procNo = 784
procNo = 1168
procNo = 1424
procNo = 1935
procNo = 1551
procNo = 1680
procNo = 1807
procNo = 144
procNo = 529
procNo = 1297
procNo = 656
procNo = 401
procNo = 1041
procNo = 273
procNo = 913
procNo = 785
procNo = 1169
procNo = 1425
procNo = 1936
procNo = 1552
procNo = 1681
procNo = 1808
procNo = 145
procNo = 530
procNo = 1298
procNo = 657
procNo = 402
procNo = 1042
procNo = 274
procNo = 914
procNo = 786
procNo = 1170
procNo = 1426
procNo = 1937
procNo = 1553
procNo = 1682
procNo = 1809
procNo = 146
procNo = 531
procNo = 1299
procNo = 658
procNo = 403
procNo = 1043
procNo = 275
procNo = 915
procNo = 787
procNo = 1171
procNo = 1427
procNo = 1938
procNo = 1554
procNo = 1683
procNo = 1810
procNo = 147
procNo = 532
procNo = 1300
procNo = 659
procNo = 404
procNo = 1044
procNo = 276
procNo = 916
procNo = 788
procNo = 1172
procNo = 1428
procNo = 1939
procNo = 1555
procNo = 1684
procNo = 1811
procNo = 148
procNo = 533
procNo = 1301
procNo = 660
procNo = 405
procNo = 1045
procNo = 277
procNo = 917
procNo = 789
procNo = 1173
procNo = 1429
procNo = 1940
procNo = 1556
procNo = 1685
procNo = 1812
procNo = 149
procNo = 534
procNo = 1302
procNo = 661
procNo = 406
procNo = 1046
procNo = 278
procNo = 918
procNo = 790
procNo = 1174
procNo = 1430
procNo = 1941
procNo = 1557
procNo = 1686
procNo = 1813
procNo = 150
procNo = 535
procNo = 1303
procNo = 662
procNo = 407
procNo = 1047
procNo = 279
procNo = 919
procNo = 791
procNo = 1175
procNo = 1431
procNo = 1942
procNo = 1558
procNo = 1687
procNo = 1814
procNo = 151
procNo = 536
procNo = 1304
procNo = 663
procNo = 408
procNo = 1048
procNo = 280
procNo = 920
procNo = 792
procNo = 1176
procNo = 1432
procNo = 1943
procNo = 1559
procNo = 1688
procNo = 1815
procNo = 152
procNo = 537
procNo = 1305
procNo = 664
procNo = 409
procNo = 1049
procNo = 281
procNo = 921
procNo = 793
procNo = 1177
procNo = 1433
procNo = 1944
procNo = 1560
procNo = 1689
procNo = 1816
procNo = 153
Courant Number mean: 1.036765635760267e-11 max: 2.085039370078742e-05
procNo = 538
procNo = 1306
procNo = 665
procNo = 410
procNo = 1050
procNo = 282
procNo = 922
procNo = 794
procNo = 1178
procNo = 1434
procNo = 1945
procNo = 1561
procNo = 1690
procNo = 1817
procNo = 154
procNo = 539
procNo = 1307
procNo = 666
procNo = 411
procNo = 1051
procNo = 283
procNo = 923
procNo = 795
procNo = 1179
procNo = 1435
procNo = 1946
procNo = 1562
procNo = 1691
procNo = 1818
procNo = 155
procNo = 540
procNo = 1308
procNo = 667
procNo = 412
procNo = 1052
procNo = 284
procNo = 924
procNo = 796
procNo = 1180
procNo = 1436
procNo = 1947
procNo = 1563
procNo = 1692
procNo = 1819
procNo = 156
procNo = 541
procNo = 1309
procNo = 668
procNo = 413
procNo = 1053
procNo = 285
procNo = 925
procNo = 797
procNo = 1181
procNo = 1437
procNo = 1948
procNo = 1564
procNo = 1693
procNo = 1820
procNo = 157
procNo = 542
procNo = 1310
procNo = 669
procNo = 414
procNo = 1054
procNo = 286
procNo = 926
procNo = 798
procNo = 1182
procNo = 1438
procNo = 1949
procNo = 1565
procNo = 1694
procNo = 1821
procNo = 158
procNo = 543
procNo = 1311
procNo = 670
procNo = 415
procNo = 1055
procNo = 287
procNo = 927
procNo = 799
procNo = 1183
procNo = 1439
procNo = 1950
procNo = 1566
procNo = 1695
procNo = 1822
procNo = 159
procNo = 544
procNo = 1312
procNo = 671
procNo = 416
procNo = 1056
procNo = 288
procNo = 928
procNo = 800
procNo = 1184
procNo = 1440
procNo = 1951
procNo = 1567
procNo = 1696
procNo = 1823
procNo = 160
procNo = 545
procNo = 1313
procNo = 672
procNo = 417
procNo = 1057
procNo = 289
procNo = 929
procNo = 801
procNo = 1185
procNo = 1441
procNo = 1952
procNo = 1568
procNo = 1697
procNo = 1824
procNo = 161
procNo = 546
procNo = 1314
procNo = 673
procNo = 418
procNo = 1058
procNo = 290
procNo = 930
procNo = 802
procNo = 1186
procNo = 1442
procNo = 1953
procNo = 1569
procNo = 1698
procNo = 1825
procNo = 162
procNo = 547
procNo = 1315
procNo = 674
procNo = 419
procNo = 1059
procNo = 291
procNo = 931
procNo = 803
procNo = 1187
procNo = 1443
procNo = 1954
procNo = 1570
procNo = 1699
procNo = 1826
procNo = 163
procNo = 548
procNo = 1316
procNo = 675
procNo = 420
procNo = 1060
procNo = 292
procNo = 932
procNo = 804
procNo = 1188
procNo = 1444
procNo = 1955
procNo = 1571
procNo = 1700
procNo = 1827
procNo = 164
procNo = 549
procNo = 1317
procNo = 676
procNo = 421
procNo = 1061
procNo = 293
procNo = 933
procNo = 805
procNo = 1189
procNo = 1445
procNo = 1956
procNo = 1572
procNo = 1701
procNo = 1828
procNo = 165
procNo = 550
procNo = 1318
procNo = 677
procNo = 422
procNo = 1062
procNo = 294
procNo = 934
procNo = 806
procNo = 1190
procNo = 1446
procNo = 1957
procNo = 1573
procNo = 1702
procNo = 1829
procNo = 166
procNo = 551
procNo = 1319
procNo = 678
procNo = 423
procNo = 1063
procNo = 295
procNo = 935
procNo = 807
procNo = 1191
procNo = 1447
procNo = 1958
procNo = 1574
procNo = 1703
procNo = 1830
procNo = 167
procNo = 552
procNo = 1320
procNo = 679
procNo = 424
procNo = 1064
procNo = 296
procNo = 936
procNo = 808
procNo = 1192
procNo = 1448
procNo = 1959
procNo = 1575
procNo = 1704
procNo = 1831
procNo = 168
procNo = 553
procNo = 1321
procNo = 680
procNo = 425
procNo = 1065
procNo = 297
procNo = 937
procNo = 809
procNo = 1193
procNo = 1449
procNo = 1960
procNo = 1576
procNo = 1705
procNo = 1832
procNo = 169
procNo = 554
procNo = 1322
procNo = 681
procNo = 426
procNo = 1066
procNo = 298
procNo = 938
procNo = 810
procNo = 1194
procNo = 1450
procNo = 1961
procNo = 1577
procNo = 1706
procNo = 1833
procNo = 170
procNo = 555
procNo = 1323
procNo = 682
procNo = 427
procNo = 1067
procNo = 299
procNo = 939
procNo = 811
procNo = 1195
procNo = 1451
procNo = 1962
procNo = 1578
procNo = 1707
procNo = 1834
procNo = 171
procNo = 556
procNo = 1324
procNo = 683
procNo = 428
procNo = 1068
procNo = 300
procNo = 940
procNo = 812
procNo = 1196
procNo = 1452
procNo = 1963
procNo = 1579
procNo = 1708
procNo = 1835
procNo = 172
procNo = 557
procNo = 1325
procNo = 684
procNo = 429
procNo = 1069
procNo = 301
procNo = 941
procNo = 813
procNo = 1197
procNo = 1453
procNo = 1964
procNo = 1580
procNo = 1709
procNo = 1836
procNo = 173
procNo = 558
procNo = 1326
procNo = 685
procNo = 430
procNo = 1070
procNo = 302
procNo = 942
procNo = 814
procNo = 1198
procNo = 1454
procNo = 1965
procNo = 1581
procNo = 1710
procNo = 1837
procNo = 174
procNo = 559
procNo = 1327
procNo = 686
procNo = 431
procNo = 1071
procNo = 303
procNo = 943
procNo = 815
procNo = 1199
procNo = 1455
procNo = 1966
procNo = 1582
procNo = 1711
procNo = 1838
procNo = 175
procNo = 560
procNo = 1328
procNo = 687
procNo = 432
procNo = 1072
procNo = 304
procNo = 944
procNo = 816
procNo = 1200
procNo = 1456
procNo = 1967
procNo = 1583
procNo = 1712
procNo = 1839
procNo = 176
procNo = 561
procNo = 1329
procNo = 688
procNo = 433
procNo = 1073
procNo = 305
procNo = 945
procNo = 817
procNo = 1201
procNo = 1457
procNo = 1968
procNo = 1584
procNo = 1713
procNo = 1840
procNo = 177
procNo = 562
procNo = 1330
procNo = 689
procNo = 434
procNo = 1074
procNo = 306
procNo = 946
procNo = 818
procNo = 1202
procNo = 1458
procNo = 1969
procNo = 1585
procNo = 1714
procNo = 1841
procNo = 178
procNo = 563
procNo = 1331
procNo = 690
procNo = 435
procNo = 1075
procNo = 307
procNo = 947
procNo = 819
procNo = 1203
procNo = 1459
procNo = 1970
procNo = 1586
procNo = 1715
procNo = 1842
procNo = 179
procNo = 564
procNo = 1332
procNo = 691
procNo = 436
procNo = 1076
procNo = 308
procNo = 948
procNo = 820
procNo = 1204
procNo = 1460
procNo = 1971
procNo = 1587
procNo = 1716
procNo = 1843
procNo = 180
procNo = 565
procNo = 1333
procNo = 692
procNo = 437
procNo = 1077
procNo = 309
procNo = 949
procNo = 821
procNo = 1205
procNo = 1461
procNo = 1972
procNo = 1588
procNo = 1717
procNo = 1844
procNo = 181
procNo = 566
procNo = 1334
procNo = 693
procNo = 438
procNo = 1078
procNo = 310
procNo = 950
procNo = 822
procNo = 1206
procNo = 1462
procNo = 1973
procNo = 1589
procNo = 1718
procNo = 1845
procNo = 182
procNo = 567
procNo = 1335
procNo = 694
procNo = 439
procNo = 1079
procNo = 311
procNo = 951
procNo = 823
procNo = 1207
procNo = 1463
procNo = 1974
procNo = 1590
procNo = 1719
procNo = 1846
procNo = 183
procNo = 568
procNo = 1336
procNo = 695
procNo = 440
procNo = 1080
procNo = 312
procNo = 952
procNo = 824
procNo = 1208
procNo = 1464
procNo = 1975
procNo = 1591
procNo = 1720
procNo = 1847
procNo = 184
procNo = 569
procNo = 1337
procNo = 696
procNo = 441
procNo = 1081
procNo = 313
procNo = 953
procNo = 825
procNo = 1209
procNo = 1465
procNo = 1976
procNo = 1592
procNo = 1721
procNo = 1848
procNo = 185
procNo = 570
procNo = 1338
procNo = 697
procNo = 442
procNo = 1082
procNo = 314
procNo = 954
procNo = 826
procNo = 1210
procNo = 1466
procNo = 1977
procNo = 1593
procNo = 1722
procNo = 1849
procNo = 186
procNo = 571
procNo = 1339
procNo = 698
procNo = 443
procNo = 1083
procNo = 315
procNo = 955
procNo = 827
procNo = 1211
procNo = 1467
procNo = 1978
procNo = 1594
procNo = 1723
procNo = 1850
procNo = 187
procNo = 572
procNo = 1340
procNo = 699
procNo = 444
procNo = 1084
procNo = 316
procNo = 956
procNo = 828
procNo = 1212
procNo = 1468
procNo = 1979
procNo = 1595
procNo = 1724
procNo = 1851
procNo = 188
procNo = 573
procNo = 1341
procNo = 700
procNo = 445
procNo = 1085
procNo = 317
procNo = 957
procNo = 829
procNo = 1213
procNo = 1469
procNo = 1980
procNo = 1596
procNo = 1725
procNo = 1852
procNo = 189
procNo = 574
procNo = 1342
procNo = 701
procNo = 446
procNo = 1086
procNo = 318
procNo = 958
procNo = 830
procNo = 1214
procNo = 1470
procNo = 1981
procNo = 1597
procNo = 1726
procNo = 1853
procNo = 190
procNo = 575
procNo = 1343
procNo = 702
procNo = 447
procNo = 1087
procNo = 319
procNo = 959
procNo = 831
procNo = 1215
procNo = 1471
procNo = 1982
procNo = 1598
procNo = 1727
procNo = 1854
procNo = 191
procNo = 576
procNo = 1344
procNo = 703
procNo = 448
procNo = 1088
procNo = 320
procNo = 960
procNo = 832
procNo = 1216
procNo = 1472
procNo = 1983
procNo = 1599
procNo = 1728
procNo = 1855
procNo = 192
procNo = 577
procNo = 1345
procNo = 704
procNo = 449
procNo = 1089
procNo = 321
procNo = 961
procNo = 833
procNo = 1217
procNo = 1473
procNo = 1984
procNo = 1600
procNo = 1729
procNo = 1856
procNo = 193
procNo = 578
procNo = 1346
procNo = 705
procNo = 450
procNo = 1090
procNo = 322
procNo = 962
procNo = 834
procNo = 1218
procNo = 1474
procNo = 1985
procNo = 1601
procNo = 1730
procNo = 1857
procNo = 194
procNo = 579
procNo = 1347
procNo = 706
procNo = 451
procNo = 1091
procNo = 323
procNo = 963
procNo = 835
procNo = 1219
procNo = 1475
procNo = 1986
procNo = 1602
procNo = 1731
procNo = 1858
procNo = 195
procNo = 580
procNo = 1348
procNo = 707
procNo = 452
procNo = 1092
procNo = 324
procNo = 964
procNo = 836
procNo = 1220
procNo = 1476
procNo = 1987
procNo = 1603
procNo = 1732
procNo = 1859
procNo = 196
procNo = 581
procNo = 1349
procNo = 708
procNo = 453
procNo = 1093
procNo = 325
procNo = 965
procNo = 837
procNo = 1221
procNo = 1477
procNo = 1988
procNo = 1604
procNo = 1733
procNo = 1860
procNo = 197
procNo = 582
procNo = 1350
procNo = 709
procNo = 454
procNo = 1094
procNo = 326
procNo = 966
procNo = 838
procNo = 1222
procNo = 1478
procNo = 1989
procNo = 1605
procNo = 1734
procNo = 1861
procNo = 198
procNo = 583
procNo = 1351
procNo = 710
procNo = 455
procNo = 1095
procNo = 327
procNo = 967
procNo = 839
procNo = 1223
procNo = 1479
procNo = 1990
procNo = 1606
procNo = 1735
procNo = 1862
procNo = 199
procNo = 584
procNo = 1352
procNo = 711
procNo = 456
procNo = 1096
procNo = 328
procNo = 968
procNo = 840
procNo = 1224
procNo = 1480
procNo = 1991
procNo = 1607
procNo = 1736
procNo = 1863
procNo = 200
procNo = 585
procNo = 1353
procNo = 712
procNo = 457
procNo = 1097
procNo = 329
procNo = 969
procNo = 841
procNo = 1225
procNo = 1481
procNo = 1992
procNo = 1608
procNo = 1737
procNo = 1864
procNo = 201
procNo = 586
procNo = 1354
procNo = 713
procNo = 458
procNo = 1098
procNo = 330
procNo = 970
procNo = 842
procNo = 1226
procNo = 1482
procNo = 1993
procNo = 1609
procNo = 1738
procNo = 1865
procNo = 202
procNo = 587
procNo = 1355
procNo = 714
procNo = 459
procNo = 1099
procNo = 331
procNo = 971
procNo = 843
procNo = 1227
procNo = 1483
procNo = 1994
procNo = 1610
procNo = 1739
procNo = 1866
procNo = 203
procNo = 588
procNo = 1356
procNo = 715
procNo = 460
procNo = 1100
procNo = 332
procNo = 972
procNo = 844
procNo = 1228
procNo = 1484
procNo = 1995
procNo = 1611
procNo = 1740
procNo = 1867
procNo = 204
procNo = 589
procNo = 1357
procNo = 716
procNo = 461
procNo = 1101
procNo = 333
procNo = 973
procNo = 845
procNo = 1229
procNo = 1485
procNo = 1996
procNo = 1612
procNo = 1741
procNo = 1868
procNo = 205
procNo = 590
procNo = 1358
procNo = 717
procNo = 462
procNo = 1102
procNo = 334
procNo = 974
procNo = 846
procNo = 1230
procNo = 1486
procNo = 1997
procNo = 1613
procNo = 1742
procNo = 1869
procNo = 206
procNo = 591
procNo = 1359
procNo = 718
procNo = 463
procNo = 1103
procNo = 335
procNo = 975
procNo = 847
procNo = 1231
procNo = 1487
procNo = 1998
procNo = 1614
procNo = 1743
procNo = 1870
procNo = 207
procNo = 592
procNo = 1360
procNo = 719
procNo = 464
procNo = 1104
procNo = 336
procNo = 976
procNo = 848
procNo = 1232
procNo = 1488
procNo = 1999
procNo = 1615
procNo = 1744
procNo = 1871
procNo = 208
procNo = 593
procNo = 1361
procNo = 720
procNo = 465
procNo = 1105
procNo = 337
procNo = 977
procNo = 849
procNo = 1233
procNo = 1489
procNo = 2000
procNo = 1616
procNo = 1745
procNo = 1872
procNo = 209
procNo = 594
procNo = 1362
procNo = 721
procNo = 466
procNo = 1106
procNo = 338
procNo = 978
procNo = 850
procNo = 1234
procNo = 1490
procNo = 2001
procNo = 1617
procNo = 1746
procNo = 1873
procNo = 210
procNo = 595
procNo = 1363
procNo = 722
procNo = 467
procNo = 1107
procNo = 339
procNo = 979
procNo = 851
procNo = 1235
procNo = 1491
procNo = 2002
procNo = 1618
procNo = 1747
procNo = 1874
procNo = 211
procNo = 596
procNo = 1364
procNo = 723
procNo = 468
procNo = 1108
procNo = 340
procNo = 980
procNo = 852
procNo = 1236
procNo = 1492
procNo = 2003
procNo = 1619
procNo = 1748
procNo = 1875
procNo = 212
procNo = 597
procNo = 1365
procNo = 724
procNo = 469
procNo = 1109
procNo = 341
procNo = 981
procNo = 853
procNo = 1237
procNo = 1493
procNo = 2004
procNo = 1620
procNo = 1749
procNo = 1876
procNo = 213
procNo = 598
procNo = 1366
procNo = 725
procNo = 470
procNo = 1110
procNo = 342
procNo = 982
procNo = 854
procNo = 1238
procNo = 1494
procNo = 2005
procNo = 1621
procNo = 1750
procNo = 1877
procNo = 214
procNo = 599
procNo = 1367
procNo = 726
procNo = 471
procNo = 1111
procNo = 343
procNo = 983
procNo = 855
procNo = 1239
procNo = 1495
procNo = 2006
procNo = 1622
procNo = 1751
procNo = 1878
procNo = 215
procNo = 600
procNo = 1368
procNo = 727
procNo = 472
procNo = 1112
procNo = 344
procNo = 984
procNo = 856
procNo = 1240
procNo = 1496
procNo = 2007
procNo = 1623
procNo = 1752
procNo = 1879
procNo = 216
procNo = 601
procNo = 1369
procNo = 728
procNo = 473
procNo = 1113
procNo = 345
procNo = 985
procNo = 857
procNo = 1241
procNo = 1497
procNo = 2008
procNo = 1624
procNo = 1753
procNo = 1880
procNo = 217
procNo = 602
procNo = 1370
procNo = 729
procNo = 474
procNo = 1114
procNo = 346
procNo = 986
procNo = 858
procNo = 1242
procNo = 1498
procNo = 2009
procNo = 1625
procNo = 1754
procNo = 1881
procNo = 218
procNo = 603
procNo = 1371
procNo = 730
procNo = 475
procNo = 1115
procNo = 347
procNo = 987
procNo = 859
procNo = 1243
procNo = 1499
procNo = 2010
procNo = 1626
procNo = 1755
procNo = 1882
procNo = 219
procNo = 604
procNo = 1372
procNo = 731
procNo = 476
procNo = 1116
procNo = 348
procNo = 988
procNo = 860
procNo = 1244
procNo = 1500
procNo = 2011
procNo = 1627
procNo = 1756
procNo = 1883
procNo = 220
procNo = 605
procNo = 1373
procNo = 732
procNo = 477
procNo = 1117
procNo = 349
procNo = 989
procNo = 861
procNo = 1245
procNo = 1501
procNo = 2012
procNo = 1628
procNo = 1757
procNo = 1884
procNo = 221
procNo = 606
procNo = 1374
procNo = 733
procNo = 478
procNo = 1118
procNo = 350
procNo = 990
procNo = 862
procNo = 1246
procNo = 1502
procNo = 2013
procNo = 1629
procNo = 1758
procNo = 1885
procNo = 222
procNo = 607
procNo = 1375
procNo = 734
procNo = 479
procNo = 1119
procNo = 351
procNo = 991
procNo = 863
procNo = 1247
procNo = 1503
procNo = 2014
procNo = 1630
procNo = 1759
procNo = 1886
procNo = 223
procNo = 608
procNo = 1376
procNo = 735
procNo = 480
procNo = 1120
procNo = 352
procNo = 992
procNo = 864
procNo = 1248
procNo = 1504
procNo = 2015
procNo = 1631
procNo = 1760
procNo = 1887
procNo = 224
procNo = 609
procNo = 1377
procNo = 736
procNo = 481
procNo = 1121
procNo = 353
procNo = 993
procNo = 865
procNo = 1249
procNo = 1505
procNo = 2016
procNo = 1632
procNo = 1761
procNo = 1888
procNo = 225
procNo = 610
procNo = 1378
procNo = 737
procNo = 482
procNo = 1122
procNo = 354
procNo = 994
procNo = 866
procNo = 1250
procNo = 1506
procNo = 2017
procNo = 1633
procNo = 1762
procNo = 1889
procNo = 226
procNo = 611
procNo = 1379
procNo = 738
procNo = 483
procNo = 1123
procNo = 355
procNo = 995
procNo = 867
procNo = 1251
procNo = 1507
procNo = 2018
procNo = 1634
procNo = 1763
procNo = 1890
procNo = 227
procNo = 612
procNo = 1380
procNo = 739
procNo = 484
procNo = 1124
procNo = 356
procNo = 996
procNo = 868
procNo = 1252
procNo = 1508
procNo = 2019
procNo = 1635
procNo = 1764
procNo = 1891
procNo = 228
procNo = 613
procNo = 1381
procNo = 740
procNo = 485
procNo = 1125
procNo = 357
procNo = 997
procNo = 869
procNo = 1253
procNo = 1509
procNo = 2020
procNo = 1636
procNo = 1765
procNo = 1892
procNo = 229
procNo = 614
procNo = 1382
procNo = 741
procNo = 486
procNo = 1126
procNo = 358
procNo = 998
procNo = 870
procNo = 1254
procNo = 1510
procNo = 2021
procNo = 1637
procNo = 1766
procNo = 1893
procNo = 230
procNo = 615
procNo = 1383
procNo = 742
procNo = 487
procNo = 1127
procNo = 359
procNo = 999
procNo = 871
procNo = 1255
procNo = 1511
procNo = 2022
procNo = 1638
procNo = 1767
procNo = 1894
procNo = 231

Starting time loop

procNo = 616
procNo = 1384
procNo = 743
procNo = 488
procNo = 1128
procNo = 360
procNo = 1000
procNo = 872
procNo = 1256
procNo = 1512
procNo = 2023
procNo = 1639
procNo = 1768
procNo = 1895
procNo = 232
procNo = 617
procNo = 1385
procNo = 744
procNo = 489
procNo = 1129
procNo = 361
procNo = 1001
procNo = 873
procNo = 1257
procNo = 1513
procNo = 2024
procNo = 1640
procNo = 1769
procNo = 1896
procNo = 233
procNo = 618
procNo = 1386
procNo = 745
procNo = 490
procNo = 1130
procNo = 362
procNo = 1002
procNo = 874
procNo = 1258
procNo = 1514
procNo = 2025
procNo = 1641
procNo = 1770
procNo = 1897
procNo = 234
procNo = 619
procNo = 1387
procNo = 746
procNo = 491
procNo = 1131
procNo = 363
procNo = 1003
procNo = 875
procNo = 1259
procNo = 1515
procNo = 2026
procNo = 1642
procNo = 1771
procNo = 1898
procNo = 235
procNo = 620
procNo = 1388
procNo = 747
procNo = 492
procNo = 1132
procNo = 364
procNo = 1004
procNo = 876
procNo = 1260
procNo = 1516
procNo = 2027
procNo = 1643
procNo = 1772
procNo = 1899
procNo = 236
procNo = 621
procNo = 1389
procNo = 748
procNo = 493
procNo = 1133
procNo = 365
procNo = 1005
procNo = 877
procNo = 1261
procNo = 1517
procNo = 2028
procNo = 1644
procNo = 1773
procNo = 1900
procNo = 237
procNo = 622
procNo = 1390
procNo = 749
procNo = 494
procNo = 1134
procNo = 366
procNo = 1006
procNo = 878
procNo = 1262
procNo = 1518
procNo = 2029
procNo = 1645
procNo = 1774
procNo = 1901
procNo = 238
procNo = 623
procNo = 1391
procNo = 750
procNo = 495
procNo = 1135
procNo = 367
procNo = 1007
procNo = 879
procNo = 1263
procNo = 1519
procNo = 2030
procNo = 1646
procNo = 1775
procNo = 1902
procNo = 239
procNo = 624
procNo = 1392
procNo = 751
procNo = 496
procNo = 1136
procNo = 368
procNo = 1008
procNo = 880
procNo = 1264
procNo = 1520
procNo = 2031
procNo = 1647
procNo = 1776
procNo = 1903
procNo = 240
procNo = 625
procNo = 1393
procNo = 752
procNo = 497
procNo = 1137
procNo = 369
procNo = 1009
procNo = 881
procNo = 1265
procNo = 1521
procNo = 2032
procNo = 1648
procNo = 1777
procNo = 1904
procNo = 241
procNo = 626
procNo = 1394
procNo = 753
procNo = 498
procNo = 1138
procNo = 370
procNo = 1010
procNo = 882
procNo = 1266
procNo = 1522
procNo = 2033
procNo = 1649
procNo = 1778
procNo = 1905
procNo = 242
procNo = 627
procNo = 1395
procNo = 754
procNo = 499
procNo = 1139
procNo = 371
procNo = 1011
procNo = 883
procNo = 1267
procNo = 1523
procNo = 2034
procNo = 1650
procNo = 1779
procNo = 1906
procNo = 243
procNo = 628
procNo = 1396
procNo = 755
procNo = 500
procNo = 1140
procNo = 372
procNo = 1012
procNo = 884
procNo = 1268
procNo = 1524
procNo = 2035
procNo = 1651
procNo = 1780
procNo = 1907
procNo = 244
procNo = 629
procNo = 1397
procNo = 756
procNo = 501
procNo = 1141
procNo = 373
procNo = 1013
procNo = 885
procNo = 1269
procNo = 1525
procNo = 2036
procNo = 1652
procNo = 1781
procNo = 1908
procNo = 245
procNo = 630
procNo = 1398
procNo = 757
procNo = 502
procNo = 1142
procNo = 374
procNo = 1014
procNo = 886
procNo = 1270
procNo = 1526
procNo = 2037
procNo = 1653
procNo = 1782
procNo = 1909
procNo = 246
procNo = 631
procNo = 1399
procNo = 758
procNo = 503
procNo = 1143
procNo = 375
procNo = 1015
procNo = 887
procNo = 1271
procNo = 1527
procNo = 2038
procNo = 1654
procNo = 1783
procNo = 1910
procNo = 247
procNo = 632
procNo = 1400
procNo = 759
procNo = 504
procNo = 1144
procNo = 376
procNo = 1016
procNo = 888
procNo = 1272
procNo = 1528
procNo = 2039
procNo = 1655
procNo = 1784
procNo = 1911
procNo = 248
procNo = 633
procNo = 1401
procNo = 760
procNo = 505
procNo = 1145
procNo = 377
procNo = 1017
procNo = 889
procNo = 1273
procNo = 1529
procNo = 2040
procNo = 1656
procNo = 1785
procNo = 1912
procNo = 249
procNo = 634
procNo = 1402
procNo = 761
procNo = 506
procNo = 1146
procNo = 378
procNo = 1018
procNo = 890
procNo = 1274
procNo = 1530
procNo = 2041
procNo = 1657
procNo = 1786
procNo = 1913
procNo = 250
procNo = 635
procNo = 1403
procNo = 762
procNo = 507
procNo = 1147
procNo = 379
procNo = 1019
procNo = 891
procNo = 1275
procNo = 1531
procNo = 2042
procNo = 1658
procNo = 1787
procNo = 1914
procNo = 251
procNo = 636
procNo = 1404
procNo = 763
procNo = 508
procNo = 1148
procNo = 380
procNo = 1020
procNo = 892
procNo = 1276
procNo = 1532
procNo = 2043
procNo = 1659
procNo = 1788
procNo = 1915
procNo = 252
procNo = 637
procNo = 1405
procNo = 764
procNo = 509
procNo = 1149
procNo = 381
procNo = 1021
procNo = 893
procNo = 1277
procNo = 1533
procNo = 2044
procNo = 1660
procNo = 1789
procNo = 1916
procNo = 253
procNo = 638
procNo = 1406
procNo = 765
procNo = 510
procNo = 1150
procNo = 382
procNo = 1022
procNo = 894
procNo = 1278
procNo = 1534
procNo = 2045
procNo = 1661
procNo = 1790
procNo = 1917
procNo = 254
procNo = 639
procNo = 1407
procNo = 766
procNo = 511
procNo = 1151
procNo = 383
procNo = 1023
procNo = 895
procNo = 1279
procNo = 1535
procNo = 2046
procNo = 1662
procNo = 1791
procNo = 1918
procNo = 255
procNo = 767
procNo = 2047
procNo = 1663
procNo = 1919
Courant Number mean: 1.036765635760267e-11 max: 2.085039370078742e-05
deltaT = 1.2e-09
Time = 1.2e-09

PIMPLE: iteration 1
diagonal:  Solving for rho, Initial residual = 0, Final residual = 0, No Iterations 0
DILUPBiCG:  Solving for Ux, Initial residual = 1, Final residual = 2.288761372833551e-20, No Iterations 2
DILUPBiCG:  Solving for Uy, Initial residual = 1, Final residual = 2.400931068381379e-20, No Iterations 2
DILUPBiCG:  Solving for Uz, Initial residual = 1, Final residual = 3.401077472573895e-20, No Iterations 2
DILUPBiCG:  Solving for e, Initial residual = 0.9999960224255511, Final residual = 1.367946357235511e-19, No Iterations 2
DILUPBiCG:  Solving for p, Initial residual = 0.9999985342700241, Final residual = 4.931641290791051e-10, No Iterations 1
diagonal:  Solving for rho, Initial residual = 0, Final residual = 0, No Iterations 0
time step continuity errors : sum local = 2.489713638880435e-16, global = -2.487021613162083e-16, cumulative = -2.487021613162083e-16
DILUPBiCG:  Solving for p, Initial residual = 4.65750734308058e-07, Final residual = 7.668491726685376e-16, No Iterations 1
diagonal:  Solving for rho, Initial residual = 0, Final residual = 0, No Iterations 0
time step continuity errors : sum local = 2.67007865665381e-16, global = -2.663512749586327e-16, cumulative = -5.15053436274841e-16
DILUPBiCG:  Solving for k, Initial residual = 0.9999999957920774, Final residual = 3.40228693301015e-20, No Iterations 2
ExecutionTime = 128.75 s  ClockTime = 511 s

ORIG_COMP_STEP = 1.185903124
ORIG_IO_STEP = 24.246808647
Courant Number mean: 1.244124999693757e-11 max: 2.501990921293873e-05
deltaT = 1.44e-09
Time = 2.64e-09

PIMPLE: iteration 1
diagonal:  Solving for rho, Initial residual = 0, Final residual = 0, No Iterations 0
DILUPBiCG:  Solving for Ux, Initial residual = 0.3749195246817532, Final residual = 5.196404841426442e-21, No Iterations 2
DILUPBiCG:  Solving for Uy, Initial residual = 0.3749195246258346, Final residual = 5.448688815801159e-21, No Iterations 2
DILUPBiCG:  Solving for Uz, Initial residual = 0.2307596483099861, Final residual = 4.765229868127631e-21, No Iterations 2
DILUPBiCG:  Solving for e, Initial residual = 0.230755208709394, Final residual = 1.913074361347017e-20, No Iterations 2
DILUPBiCG:  Solving for p, Initial residual = 0.2307627592654327, Final residual = 6.862378571977885e-11, No Iterations 1
diagonal:  Solving for rho, Initial residual = 0, Final residual = 0, No Iterations 0
time step continuity errors : sum local = 5.426335155676119e-16, global = -5.425902007483099e-16, cumulative = -1.057643637023151e-15
DILUPBiCG:  Solving for p, Initial residual = 3.221480109108168e-07, Final residual = 3.225378523956381e-14, No Iterations 1
diagonal:  Solving for rho, Initial residual = 0, Final residual = 0, No Iterations 0
time step continuity errors : sum local = 4.820714570350994e-16, global = -4.820656466539242e-16, cumulative = -1.539709283677075e-15
DILUPBiCG:  Solving for k, Initial residual = 0.7612497707060477, Final residual = 1.574620574717621e-20, No Iterations 2
ExecutionTime = 135.91 s  ClockTime = 549 s

ORIG_COMP_STEP = 7.067934314000002
ORIG_IO_STEP = 25.69590884400001
Courant Number mean: 1.492959019321674e-11 max: 3.002308059560315e-05
deltaT = 1.728e-09
Time = 4.368e-09

PIMPLE: iteration 1
diagonal:  Solving for rho, Initial residual = 0, Final residual = 0, No Iterations 0
DILUPBiCG:  Solving for Ux, Initial residual = 0.3231075361839885, Final residual = 6.532212732441165e-21, No Iterations 2
DILUPBiCG:  Solving for Uy, Initial residual = 0.3231075382057015, Final residual = 6.84060066010658e-21, No Iterations 2
DILUPBiCG:  Solving for Uz, Initial residual = 0.1406141450187578, Final residual = 4.266788991086499e-21, No Iterations 2
DILUPBiCG:  Solving for e, Initial residual = 0.14060952724994, Final residual = 1.703494855127762e-20, No Iterations 2
DILUPBiCG:  Solving for p, Initial residual = 0.1406151798499045, Final residual = 6.022706545280912e-11, No Iterations 1
diagonal:  Solving for rho, Initial residual = 0, Final residual = 0, No Iterations 0
time step continuity errors : sum local = 6.590118031979991e-16, global = -6.589547456663192e-16, cumulative = -2.198664029343394e-15
DILUPBiCG:  Solving for p, Initial residual = 2.016379782812658e-07, Final residual = 1.557653937991067e-13, No Iterations 1
diagonal:  Solving for rho, Initial residual = 0, Final residual = 0, No Iterations 0
time step continuity errors : sum local = 6.456479617632205e-16, global = -6.45647855959618e-16, cumulative = -2.844311885303012e-15
DILUPBiCG:  Solving for k, Initial residual = 0.5223923022353526, Final residual = 1.591105083688316e-20, No Iterations 2
ExecutionTime = 145.89 s  ClockTime = 586 s

ORIG_COMP_STEP = 9.91424944900001
ORIG_IO_STEP = 25.777789021
Courant Number mean: 1.791563870936369e-11 max: 3.602653054273846e-05
deltaT = 2.0736e-09
Time = 6.4416e-09

PIMPLE: iteration 1
diagonal:  Solving for rho, Initial residual = 0, Final residual = 0, No Iterations 0
DILUPBiCG:  Solving for Ux, Initial residual = 0.2861773905407552, Final residual = 8.525839792212066e-21, No Iterations 2
DILUPBiCG:  Solving for Uy, Initial residual = 0.2861773919003835, Final residual = 8.908771920192338e-21, No Iterations 2
DILUPBiCG:  Solving for Uz, Initial residual = 0.1060777872419703, Final residual = 4.805363708026929e-21, No Iterations 2
DILUPBiCG:  Solving for e, Initial residual = 0.1060709039376532, Final residual = 1.900013028044536e-20, No Iterations 2
DILUPBiCG:  Solving for p, Initial residual = 0.1060777912648578, Final residual = 6.544583265280379e-11, No Iterations 1
diagonal:  Solving for rho, Initial residual = 0, Final residual = 0, No Iterations 0
time step continuity errors : sum local = 3.567456996053015e-16, global = -3.546115851005822e-16, cumulative = -3.198923470403594e-15
DILUPBiCG:  Solving for p, Initial residual = 1.45644718339398e-07, Final residual = 3.185117008026581e-13, No Iterations 1
diagonal:  Solving for rho, Initial residual = 0, Final residual = 0, No Iterations 0
time step continuity errors : sum local = 3.89363723251259e-16, global = -3.88938733691629e-16, cumulative = -3.587862204095223e-15
DILUPBiCG:  Solving for k, Initial residual = 0.3755560654487942, Final residual = 1.713850901099784e-20, No Iterations 2
ExecutionTime = 155.68 s  ClockTime = 623 s

ORIG_COMP_STEP = 9.747524811999995
ORIG_IO_STEP = 25.63973026100001
Courant Number mean: 2.14989555865705e-11 max: 4.323015923841612e-05
deltaT = 2.48832e-09
Time = 8.92992e-09

PIMPLE: iteration 1
diagonal:  Solving for rho, Initial residual = 0, Final residual = 0, No Iterations 0
DILUPBiCG:  Solving for Ux, Initial residual = 0.2580114937458742, Final residual = 1.145088986515788e-20, No Iterations 2
DILUPBiCG:  Solving for Uy, Initial residual = 0.2580114950202824, Final residual = 1.192935362301728e-20, No Iterations 2
DILUPBiCG:  Solving for Uz, Initial residual = 0.08805262551121781, Final residual = 6.053419222249367e-21, No Iterations 2
DILUPBiCG:  Solving for e, Initial residual = 0.08804381338362263, Final residual = 2.361261163060881e-20, No Iterations 2
DILUPBiCG:  Solving for p, Initial residual = 0.08805158749013819, Final residual = 7.825998534664367e-11, No Iterations 1
diagonal:  Solving for rho, Initial residual = 0, Final residual = 0, No Iterations 0
time step continuity errors : sum local = 1.20500736917588e-16, global = -4.102121761681735e-17, cumulative = -3.62888342171204e-15
DILUPBiCG:  Solving for p, Initial residual = 8.093060542273917e-08, Final residual = 9.01766730501403e-14, No Iterations 1
diagonal:  Solving for rho, Initial residual = 0, Final residual = 0, No Iterations 0
time step continuity errors : sum local = 1.133498931648281e-16, global = -1.921381813654765e-17, cumulative = -3.648097239848588e-15
DILUPBiCG:  Solving for k, Initial residual = 0.2906874130839977, Final residual = 2.024811736647897e-20, No Iterations 2
ExecutionTime = 161.3 s  ClockTime = 656 s

ORIG_COMP_STEP = 5.529863226000003
ORIG_IO_STEP = 18.94755565299999
Courant Number mean: 2.579902138255589e-11 max: 5.187377896431863e-05
deltaT = 2.985983999999999e-09
Time = 1.19159e-08

PIMPLE: iteration 1
diagonal:  Solving for rho, Initial residual = 0, Final residual = 0, No Iterations 0
DILUPBiCG:  Solving for Ux, Initial residual = 0.2369026529871646, Final residual = 1.584460663736489e-20, No Iterations 2
DILUPBiCG:  Solving for Uy, Initial residual = 0.2369026540652252, Final residual = 1.644733820153849e-20, No Iterations 2
DILUPBiCG:  Solving for Uz, Initial residual = 0.07712843001012697, Final residual = 8.184285224383325e-21, No Iterations 2
DILUPBiCG:  Solving for e, Initial residual = 0.07711645934625172, Final residual = 3.138708965531743e-20, No Iterations 2
DILUPBiCG:  Solving for p, Initial residual = 0.07712569925728337, Final residual = 9.876493459101467e-11, No Iterations 1
diagonal:  Solving for rho, Initial residual = 0, Final residual = 0, No Iterations 0
time step continuity errors : sum local = 3.628646084524361e-16, global = 3.620546289730184e-16, cumulative = -3.28604261087557e-15
DILUPBiCG:  Solving for p, Initial residual = 5.306497783602215e-08, Final residual = 7.005584417632501e-14, No Iterations 1
diagonal:  Solving for rho, Initial residual = 0, Final residual = 0, No Iterations 0
time step continuity errors : sum local = 3.785567184086376e-16, global = 3.72988733288054e-16, cumulative = -2.913053877587516e-15
DILUPBiCG:  Solving for k, Initial residual = 0.2385155524139415, Final residual = 2.586862460239749e-20, No Iterations 2
ExecutionTime = 167.48 s  ClockTime = 688 s

ORIG_COMP_STEP = 6.113460286999981
ORIG_IO_STEP = 27.007273844
Courant Number mean: 3.095922535029312e-11 max: 6.224506732903097e-05
deltaT = 3.583180799999999e-09
Time = 1.54991e-08

PIMPLE: iteration 1
diagonal:  Solving for rho, Initial residual = 0, Final residual = 0, No Iterations 0
DILUPBiCG:  Solving for Ux, Initial residual = 0.2210518240776377, Final residual = 2.255868491364506e-20, No Iterations 2
DILUPBiCG:  Solving for Uy, Initial residual = 0.2210518243213171, Final residual = 2.332526829490687e-20, No Iterations 2
DILUPBiCG:  Solving for Uz, Initial residual = 0.06989931929235298, Final residual = 1.165119811198629e-20, No Iterations 2
DILUPBiCG:  Solving for e, Initial residual = 0.06988444919856626, Final residual = 4.380830147906557e-20, No Iterations 2
DILUPBiCG:  Solving for p, Initial residual = 0.06989572577604421, Final residual = 1.289779274213861e-10, No Iterations 1
diagonal:  Solving for rho, Initial residual = 0, Final residual = 0, No Iterations 0
time step continuity errors : sum local = 3.226750247643384e-16, global = 3.223533436057154e-16, cumulative = -2.590700533981801e-15
DILUPBiCG:  Solving for p, Initial residual = 3.994281908212807e-08, Final residual = 5.016507748929234e-14, No Iterations 1
diagonal:  Solving for rho, Initial residual = 0, Final residual = 0, No Iterations 0
time step continuity errors : sum local = 3.158265941595412e-16, global = 3.151401462641439e-16, cumulative = -2.275560387717657e-15
DILUPBiCG:  Solving for k, Initial residual = 0.204278063881566, Final residual = 3.524665661506539e-20, No Iterations 2
ExecutionTime = 171.52 s  ClockTime = 727 s

ORIG_COMP_STEP = 3.916918000999999
ORIG_IO_STEP = 25.07408125800001
Courant Number mean: 3.715165332587572e-11 max: 7.468909815230524e-05
deltaT = 4.299816959999999e-09
Time = 1.97989e-08

PIMPLE: iteration 1
diagonal:  Solving for rho, Initial residual = 0, Final residual = 0, No Iterations 0
DILUPBiCG:  Solving for Ux, Initial residual = 0.2090172480413209, Final residual = 3.315073001544928e-20, No Iterations 2
DILUPBiCG:  Solving for Uy, Initial residual = 0.2090172478939931, Final residual = 3.397713904358563e-20, No Iterations 2
DILUPBiCG:  Solving for Uz, Initial residual = 0.06483296988448922, Final residual = 1.72872422631416e-20, No Iterations 2
DILUPBiCG:  Solving for e, Initial residual = 0.0648151210967781, Final residual = 6.360429684418682e-20, No Iterations 2
DILUPBiCG:  Solving for p, Initial residual = 0.06482835689707728, Final residual = 1.724102226842406e-10, No Iterations 1
diagonal:  Solving for rho, Initial residual = 0, Final residual = 0, No Iterations 0
time step continuity errors : sum local = 1.377999771158245e-16, global = -7.598235019254073e-17, cumulative = -2.351542737910198e-15
DILUPBiCG:  Solving for p, Initial residual = 3.437595865320571e-08, Final residual = 4.739315884783362e-14, No Iterations 1
diagonal:  Solving for rho, Initial residual = 0, Final residual = 0, No Iterations 0
time step continuity errors : sum local = 1.406763773665443e-16, global = -8.773131123722035e-17, cumulative = -2.439274049147418e-15
DILUPBiCG:  Solving for k, Initial residual = 0.1805907777538339, Final residual = 5.074153633772376e-20, No Iterations 2
ExecutionTime = 180.55 s  ClockTime = 763 s

ORIG_COMP_STEP = 8.984962820999982
ORIG_IO_STEP = 31.987727234
Courant Number mean: 4.458283626329022e-11 max: 8.961976116517031e-05
deltaT = 5.159780351999998e-09
Time = 2.49587e-08

PIMPLE: iteration 1
diagonal:  Solving for rho, Initial residual = 0, Final residual = 0, No Iterations 0
DILUPBiCG:  Solving for Ux, Initial residual = 0.199757890146296, Final residual = 5.078338091477636e-20, No Iterations 2
DILUPBiCG:  Solving for Uy, Initial residual = 0.1997578897486186, Final residual = 5.078176758763072e-20, No Iterations 2
DILUPBiCG:  Solving for Uz, Initial residual = 0.06113765121154508, Final residual = 2.657059792469268e-20, No Iterations 2
DILUPBiCG:  Solving for e, Initial residual = 0.06111614517260078, Final residual = 9.558611279736398e-20, No Iterations 2
DILUPBiCG:  Solving for p, Initial residual = 0.06113205316907445, Final residual = 2.34360276095043e-10, No Iterations 1
diagonal:  Solving for rho, Initial residual = 0, Final residual = 0, No Iterations 0
time step continuity errors : sum local = 2.863919569283333e-16, global = -2.840986550264386e-16, cumulative = -2.723372704173857e-15
DILUPBiCG:  Solving for p, Initial residual = 2.378070639576206e-08, Final residual = 3.620597970537522e-14, No Iterations 1
diagonal:  Solving for rho, Initial residual = 0, Final residual = 0, No Iterations 0
time step continuity errors : sum local = 2.825100447937653e-16, global = -2.793315488072303e-16, cumulative = -3.002704252981087e-15
DILUPBiCG:  Solving for k, Initial residual = 0.1635153332935404, Final residual = 7.672709965820948e-20, No Iterations 2
ExecutionTime = 188.78 s  ClockTime = 804 s

ORIG_COMP_STEP = 8.125645033000012
ORIG_IO_STEP = 30.44968935100002
Courant Number mean: 5.35006532613143e-11 max: 0.0001075334397309668
deltaT = 6.191736422399998e-09
Time = 3.11504e-08

PIMPLE: iteration 1
diagonal:  Solving for rho, Initial residual = 0, Final residual = 0, No Iterations 0
DILUPBiCG:  Solving for Ux, Initial residual = 0.192541931811253, Final residual = 8.031060993165826e-20, No Iterations 2
DILUPBiCG:  Solving for Uy, Initial residual = 0.192541931430393, Final residual = 7.841436675096274e-20, No Iterations 2
DILUPBiCG:  Solving for Uz, Initial residual = 0.05836276504408713, Final residual = 4.213543000973553e-20, No Iterations 2
DILUPBiCG:  Solving for e, Initial residual = 0.05833694596892451, Final residual = 1.48313943735461e-19, No Iterations 2
DILUPBiCG:  Solving for p, Initial residual = 0.05835595889070576, Final residual = 3.22564101568306e-10, No Iterations 1
diagonal:  Solving for rho, Initial residual = 0, Final residual = 0, No Iterations 0
time step continuity errors : sum local = 5.163343737199095e-16, global = -5.119629039084942e-16, cumulative = -3.514667156889581e-15
DILUPBiCG:  Solving for p, Initial residual = 1.572031120855626e-08, Final residual = 2.802817465293788e-14, No Iterations 1
diagonal:  Solving for rho, Initial residual = 0, Final residual = 0, No Iterations 0
time step continuity errors : sum local = 5.264877752900049e-16, global = -5.247857626990663e-16, cumulative = -4.039452919588647e-15
DILUPBiCG:  Solving for k, Initial residual = 0.1508056323933212, Final residual = 1.214096237296026e-19, No Iterations 2
ExecutionTime = 200.1 s  ClockTime = 847 s

ORIG_COMP_STEP = 11.255499036
ORIG_IO_STEP = 25.111334328
Courant Number mean: 6.420262259028001e-11 max: 0.0001290253889150596
deltaT = 7.430083706879997e-09
Time = 3.85805e-08

PIMPLE: iteration 1
diagonal:  Solving for rho, Initial residual = 0, Final residual = 0, No Iterations 0
DILUPBiCG:  Solving for Ux, Initial residual = 0.1868537561407996, Final residual = 1.312351846859931e-19, No Iterations 2
DILUPBiCG:  Solving for Uy, Initial residual = 0.186853755831884, Final residual = 1.270066445919161e-19, No Iterations 2
DILUPBiCG:  Solving for Uz, Initial residual = 0.05623281387165775, Final residual = 6.872926333144231e-20, No Iterations 2
DILUPBiCG:  Solving for e, Initial residual = 0.05620181154077906, Final residual = 2.373241510414186e-19, No Iterations 2
DILUPBiCG:  Solving for p, Initial residual = 0.05622465650178805, Final residual = 4.482182946440008e-10, No Iterations 1
diagonal:  Solving for rho, Initial residual = 0, Final residual = 0, No Iterations 0
time step continuity errors : sum local = 2.395941079647693e-16, global = 2.149945411414071e-16, cumulative = -3.824458378447239e-15
DILUPBiCG:  Solving for p, Initial residual = 1.918676355219425e-08, Final residual = 3.961009855159339e-14, No Iterations 1
diagonal:  Solving for rho, Initial residual = 0, Final residual = 0, No Iterations 0
time step continuity errors : sum local = 2.00225865933135e-16, global = 1.673483898331752e-16, cumulative = -3.657109988614064e-15
DILUPBiCG:  Solving for k, Initial residual = 0.1411035908332588, Final residual = 2.005355818406499e-19, No Iterations 2
ExecutionTime = 210 s  ClockTime = 883 s

ORIG_COMP_STEP = 9.83449251799999
ORIG_IO_STEP = 29.17434538099997
Courant Number mean: 7.70458624296967e-11 max: 0.0001548093385833501
deltaT = 8.916100448255996e-09
Time = 4.74966e-08

PIMPLE: iteration 1
diagonal:  Solving for rho, Initial residual = 0, Final residual = 0, No Iterations 0
DILUPBiCG:  Solving for Ux, Initial residual = 0.1823251643478572, Final residual = 2.217829987437475e-19, No Iterations 2
DILUPBiCG:  Solving for Uy, Initial residual = 0.1823251639755187, Final residual = 2.12633750600131e-19, No Iterations 2
DILUPBiCG:  Solving for Uz, Initial residual = 0.05456977652454983, Final residual = 1.150044015565338e-19, No Iterations 2
DILUPBiCG:  Solving for e, Initial residual = 0.05453258676604131, Final residual = 3.914714193439391e-19, No Iterations 2
DILUPBiCG:  Solving for p, Initial residual = 0.05455995340103213, Final residual = 6.274908835669232e-10, No Iterations 1
diagonal:  Solving for rho, Initial residual = 0, Final residual = 0, No Iterations 0
time step continuity errors : sum local = 1.406635559464192e-16, global = -6.921546767528945e-17, cumulative = -3.726325456289354e-15
DILUPBiCG:  Solving for p, Initial residual = 1.772263137129203e-08, Final residual = 4.295137458734574e-14, No Iterations 1
diagonal:  Solving for rho, Initial residual = 0, Final residual = 0, No Iterations 0
time step continuity errors : sum local = 1.53528708253213e-16, global = -1.090378701938876e-16, cumulative = -3.835363326483241e-15
DILUPBiCG:  Solving for k, Initial residual = 0.1335466240286896, Final residual = 3.450938808407413e-19, No Iterations 2
ExecutionTime = 221.19 s  ClockTime = 925 s

ORIG_COMP_STEP = 11.12811681399995
ORIG_IO_STEP = 24.93383353899998
Courant Number mean: 9.245906186398908e-11 max: 0.0001857409471672456
deltaT = 1.069932053790719e-08
Time = 5.81959e-08

PIMPLE: iteration 1
diagonal:  Solving for rho, Initial residual = 0, Final residual = 0, No Iterations 0
DILUPBiCG:  Solving for Ux, Initial residual = 0.1786887178318769, Final residual = 3.877521751120077e-19, No Iterations 2
DILUPBiCG:  Solving for Uy, Initial residual = 0.1786887175830219, Final residual = 3.680465874161634e-19, No Iterations 2
DILUPBiCG:  Solving for Uz, Initial residual = 0.05325344176877762, Final residual = 1.968624174853577e-19, No Iterations 2
DILUPBiCG:  Solving for e, Initial residual = 0.05320884588601529, Final residual = 6.656383974945884e-19, No Iterations 2
DILUPBiCG:  Solving for p, Initial residual = 0.05324160166311731, Final residual = 8.837296053388615e-10, No Iterations 1
diagonal:  Solving for rho, Initial residual = 0, Final residual = 0, No Iterations 0
time step continuity errors : sum local = 1.476086307573081e-16, global = -8.781617594301768e-17, cumulative = -3.923179502426259e-15
DILUPBiCG:  Solving for p, Initial residual = 1.187120394306901e-08, Final residual = 3.400997935136975e-14, No Iterations 1
diagonal:  Solving for rho, Initial residual = 0, Final residual = 0, No Iterations 0
time step continuity errors : sum local = 1.515980070204285e-16, global = -1.214431603409933e-16, cumulative = -4.044622662767252e-15
DILUPBiCG:  Solving for k, Initial residual = 0.1275637286554686, Final residual = 6.176284973122446e-19, No Iterations 2
ExecutionTime = 230.39 s  ClockTime = 961 s

ORIG_COMP_STEP = 9.154085329999987
ORIG_IO_STEP = 27.43894391599997
Courant Number mean: 1.109568746987582e-10 max: 0.0002228458487620225
deltaT = 1.283918464548863e-08
Time = 7.10351e-08

PIMPLE: iteration 1
diagonal:  Solving for rho, Initial residual = 0, Final residual = 0, No Iterations 0
DILUPBiCG:  Solving for Ux, Initial residual = 0.1757466898309063, Final residual = 7.033471971577757e-19, No Iterations 2
DILUPBiCG:  Solving for Uy, Initial residual = 0.1757466897566725, Final residual = 6.634960213080899e-19, No Iterations 2
DILUPBiCG:  Solving for Uz, Initial residual = 0.05219967038323953, Final residual = 3.436430731274282e-19, No Iterations 2
DILUPBiCG:  Solving for e, Initial residual = 0.05214604305833916, Final residual = 1.166739317487175e-18, No Iterations 2
DILUPBiCG:  Solving for p, Initial residual = 0.0521854537551746, Final residual = 1.25068555815894e-09, No Iterations 1
diagonal:  Solving for rho, Initial residual = 0, Final residual = 0, No Iterations 0
time step continuity errors : sum local = 4.556199488418969e-16, global = -4.318744463478105e-16, cumulative = -4.476497109115062e-15
DILUPBiCG:  Solving for p, Initial residual = 9.175072623501107e-09, Final residual = 3.122759619891931e-14, No Iterations 1
diagonal:  Solving for rho, Initial residual = 0, Final residual = 0, No Iterations 0
time step continuity errors : sum local = 4.364826649414743e-16, global = -4.364473529891622e-16, cumulative = -4.912944462104224e-15
DILUPBiCG:  Solving for k, Initial residual = 0.1227634909556445, Final residual = 1.147471173233401e-18, No Iterations 2
ExecutionTime = 239.14 s  ClockTime = 998 s

ORIG_COMP_STEP = 8.664344916000005
ORIG_IO_STEP = 20.44369858600004
Courant Number mean: 1.331572376554402e-10 max: 0.0002673531757326263
deltaT = 1.540702157458636e-08
Time = 8.64421e-08

PIMPLE: iteration 1
diagonal:  Solving for rho, Initial residual = 0, Final residual = 0, No Iterations 0
DILUPBiCG:  Solving for Ux, Initial residual = 0.1733503709789186, Final residual = 1.335946693250113e-18, No Iterations 2
DILUPBiCG:  Solving for Uy, Initial residual = 0.1733503710924148, Final residual = 1.248280883288423e-18, No Iterations 2
DILUPBiCG:  Solving for Uz, Initial residual = 0.05134778407035576, Final residual = 6.093489753565713e-19, No Iterations 2
DILUPBiCG:  Solving for e, Initial residual = 0.05128354779735081, Final residual = 2.108042995534336e-18, No Iterations 2
DILUPBiCG:  Solving for p, Initial residual = 0.0513308024285268, Final residual = 1.777210209674705e-09, No Iterations 1
diagonal:  Solving for rho, Initial residual = 0, Final residual = 0, No Iterations 0
time step continuity errors : sum local = 2.591214277845093e-16, global = 2.444999812426556e-16, cumulative = -4.668444480861568e-15
DILUPBiCG:  Solving for p, Initial residual = 9.669234948227655e-09, Final residual = 3.920854241001355e-14, No Iterations 1
diagonal:  Solving for rho, Initial residual = 0, Final residual = 0, No Iterations 0
time step continuity errors : sum local = 2.493682886014501e-16, global = 2.404942642032728e-16, cumulative = -4.427950216658296e-15
DILUPBiCG:  Solving for k, Initial residual = 0.1188694767516792, Final residual = 2.208216651118855e-18, No Iterations 2
ExecutionTime = 242.01 s  ClockTime = 1023 s

ORIG_COMP_STEP = 2.784971901999995
ORIG_IO_STEP = 29.84334289999993
Courant Number mean: 1.598022253502154e-10 max: 0.0003207356037221297
deltaT = 1.848842588950363e-08
Time = 1.04931e-07

PIMPLE: iteration 1
diagonal:  Solving for rho, Initial residual = 0, Final residual = 0, No Iterations 0
DILUPBiCG:  Solving for Ux, Initial residual = 0.171386150554008, Final residual = 2.624811161041351e-18, No Iterations 2
DILUPBiCG:  Solving for Uy, Initial residual = 0.1713861507117115, Final residual = 2.487006724993579e-18, No Iterations 2
DILUPBiCG:  Solving for Uz, Initial residual = 0.05065290346937658, Final residual = 1.091799045694389e-18, No Iterations 2
DILUPBiCG:  Solving for e, Initial residual = 0.0505760012058667, Final residual = 3.924703965025026e-18, No Iterations 2
DILUPBiCG:  Solving for p, Initial residual = 0.05063264316993745, Final residual = 2.53413369137599e-09, No Iterations 1
diagonal:  Solving for rho, Initial residual = 0, Final residual = 0, No Iterations 0
time step continuity errors : sum local = 3.231948622457861e-16, global = 3.211292761508729e-16, cumulative = -4.106820940507423e-15
DILUPBiCG:  Solving for p, Initial residual = 9.043601109011694e-09, Final residual = 4.394892124280183e-14, No Iterations 1
diagonal:  Solving for rho, Initial residual = 0, Final residual = 0, No Iterations 0
time step continuity errors : sum local = 2.782860985406884e-16, global = 2.755265495568952e-16, cumulative = -3.831294390950528e-15
DILUPBiCG:  Solving for k, Initial residual = 0.115681375523366, Final residual = 4.390908750669926e-18, No Iterations 2
ExecutionTime = 248.66 s  ClockTime = 1063 s

ORIG_COMP_STEP = 6.539267766999956
ORIG_IO_STEP = 25.09828770600006
Courant Number mean: 1.917831942386037e-10 max: 0.0003847571616184497
deltaT = 2.218611106740435e-08
Time = 1.27117e-07

PIMPLE: iteration 1
diagonal:  Solving for rho, Initial residual = 0, Final residual = 0, No Iterations 0
DILUPBiCG:  Solving for Ux, Initial residual = 0.1697659601517265, Final residual = 5.331814651163823e-18, No Iterations 2
DILUPBiCG:  Solving for Uy, Initial residual = 0.16976596027749, Final residual = 5.110212987369222e-18, No Iterations 2
DILUPBiCG:  Solving for Uz, Initial residual = 0.05008109717108065, Final residual = 1.962348632908251e-18, No Iterations 2
DILUPBiCG:  Solving for e, Initial residual = 0.04998905772192828, Final residual = 7.523755864444005e-18, No Iterations 2
DILUPBiCG:  Solving for p, Initial residual = 0.05005698237450684, Final residual = 3.624345251877205e-09, No Iterations 1
diagonal:  Solving for rho, Initial residual = 0, Final residual = 0, No Iterations 0
time step continuity errors : sum local = 3.068963814471857e-16, global = -1.673845008832109e-16, cumulative = -3.998678891833739e-15
DILUPBiCG:  Solving for p, Initial residual = 9.276634481728838e-09, Final residual = 5.433018896487981e-14, No Iterations 1
diagonal:  Solving for rho, Initial residual = 0, Final residual = 0, No Iterations 0
time step continuity errors : sum local = 2.497886622675522e-16, global = -2.352961756342921e-16, cumulative = -4.233975067468031e-15
DILUPBiCG:  Solving for k, Initial residual = 0.1130507773642621, Final residual = 8.996931255909282e-18, No Iterations 2
ExecutionTime = 252.99 s  ClockTime = 1101 s

ORIG_COMP_STEP = 4.229182034000019
ORIG_IO_STEP = 32.13775910499999
Courant Number mean: 2.301711466235152e-10 max: 0.0004615302830703818
deltaT = 2.662333328088522e-08
Time = 1.5374e-07

PIMPLE: iteration 1
diagonal:  Solving for rho, Initial residual = 0, Final residual = 0, No Iterations 0
DILUPBiCG:  Solving for Ux, Initial residual = 0.1684205699035547, Final residual = 1.198007196998536e-17, No Iterations 2
DILUPBiCG:  Solving for Uy, Initial residual = 0.1684205699974143, Final residual = 1.160910741613495e-17, No Iterations 2
DILUPBiCG:  Solving for Uz, Initial residual = 0.04960620294076101, Final residual = 3.499555210825021e-18, No Iterations 2
DILUPBiCG:  Solving for e, Initial residual = 0.04949605569731971, Final residual = 1.483493069412279e-17, No Iterations 2
DILUPBiCG:  Solving for p, Initial residual = 0.04957753992705338, Final residual = 5.197623157505572e-09, No Iterations 1
diagonal:  Solving for rho, Initial residual = 0, Final residual = 0, No Iterations 0
time step continuity errors : sum local = 7.043626563515218e-16, global = -4.892507868761283e-16, cumulative = -4.723225854344159e-15
DILUPBiCG:  Solving for p, Initial residual = 1.088658474572569e-08, Final residual = 7.711221623553286e-14, No Iterations 1
diagonal:  Solving for rho, Initial residual = 0, Final residual = 0, No Iterations 0
time step continuity errors : sum local = 5.884698782810775e-16, global = -5.866296773729566e-16, cumulative = -5.309855531717116e-15
DILUPBiCG:  Solving for k, Initial residual = 0.1108655740711175, Final residual = 1.894110817734581e-17, No Iterations 2
ExecutionTime = 257.63 s  ClockTime = 1144 s

ORIG_COMP_STEP = 4.504813861000002
ORIG_IO_STEP = 22.38333015900002
Courant Number mean: 2.762534789226647e-10 max: 0.0005535838593398179
deltaT = 3.194799993706226e-08
Time = 1.85688e-07

PIMPLE: iteration 1
diagonal:  Solving for rho, Initial residual = 0, Final residual = 0, No Iterations 0
DILUPBiCG:  Solving for Ux, Initial residual = 0.1672948674590851, Final residual = 3.328590131019667e-17, No Iterations 2
DILUPBiCG:  Solving for Uy, Initial residual = 0.1672948675139735, Final residual = 3.260757689798676e-17, No Iterations 2
DILUPBiCG:  Solving for Uz, Initial residual = 0.04920767320453238, Final residual = 6.080023982018693e-18, No Iterations 2
DILUPBiCG:  Solving for e, Initial residual = 0.04907589912581586, Final residual = 3.004105612024387e-17, No Iterations 2
DILUPBiCG:  Solving for p, Initial residual = 0.04917364142249801, Final residual = 7.472531276686245e-09, No Iterations 1
diagonal:  Solving for rho, Initial residual = 0, Final residual = 0, No Iterations 0
time step continuity errors : sum local = 3.140706691159419e-16, global = 1.52310386681539e-16, cumulative = -5.157545145035576e-15
DILUPBiCG:  Solving for p, Initial residual = 1.087395027349616e-08, Final residual = 9.395646806861218e-14, No Iterations 1
diagonal:  Solving for rho, Initial residual = 0, Final residual = 0, No Iterations 0
time step continuity errors : sum local = 1.180942717511744e-16, global = -5.328994454442953e-17, cumulative = -5.210835089580006e-15
DILUPBiCG:  Solving for k, Initial residual = 0.109039607581445, Final residual = 4.085180736044356e-17, No Iterations 2
ExecutionTime = 273.54 s  ClockTime = 1183 s

ORIG_COMP_STEP = 15.90642597399994
ORIG_IO_STEP = 25.91826595400005
Courant Number mean: 3.315785885841938e-10 max: 0.0006639444024474672
deltaT = 3.833759992447472e-08
Time = 2.24026e-07

PIMPLE: iteration 1
diagonal:  Solving for rho, Initial residual = 0, Final residual = 0, No Iterations 0
DILUPBiCG:  Solving for Ux, Initial residual = 0.1663443957000614, Final residual = 1.125371711118951e-16, No Iterations 2
DILUPBiCG:  Solving for Uy, Initial residual = 0.166344395725249, Final residual = 1.10811271829925e-16, No Iterations 2
DILUPBiCG:  Solving for Uz, Initial residual = 0.04886908350000205, Final residual = 9.931366632123277e-18, No Iterations 2
DILUPBiCG:  Solving for e, Initial residual = 0.04871149400830773, Final residual = 6.23656288668587e-17, No Iterations 2
DILUPBiCG:  Solving for p, Initial residual = 0.04882878041095949, Final residual = 1.076888907020297e-08, No Iterations 1
diagonal:  Solving for rho, Initial residual = 0, Final residual = 0, No Iterations 0
time step continuity errors : sum local = 4.605528022864641e-16, global = 4.229730057161782e-16, cumulative = -4.787862083863827e-15
DILUPBiCG:  Solving for p, Initial residual = 1.327782212183192e-08, Final residual = 1.404890201066242e-13, No Iterations 1
diagonal:  Solving for rho, Initial residual = 0, Final residual = 0, No Iterations 0
time step continuity errors : sum local = 1.312184884452169e-16, global = 7.299081033176168e-17, cumulative = -4.714871273532065e-15
DILUPBiCG:  Solving for k, Initial residual = 0.1075056543295562, Final residual = 9.000440844940062e-17, No Iterations 2
ExecutionTime = 285.88 s  ClockTime = 1223 s

ORIG_COMP_STEP = 12.29979127500008
ORIG_IO_STEP = 24.34071517199993
Courant Number mean: 3.980102364402525e-10 max: 0.0007962328698137058
deltaT = 4.600511990936966e-08
Time = 2.70031e-07

PIMPLE: iteration 1
diagonal:  Solving for rho, Initial residual = 0, Final residual = 0, No Iterations 0
DILUPBiCG:  Solving for Ux, Initial residual = 0.1655328305726989, Final residual = 2.042243258537472e-15, No Iterations 2
DILUPBiCG:  Solving for Uy, Initial residual = 0.1655328305868256, Final residual = 1.905882458955927e-15, No Iterations 2
DILUPBiCG:  Solving for Uz, Initial residual = 0.04857706695289905, Final residual = 1.39502059556406e-17, No Iterations 2
DILUPBiCG:  Solving for e, Initial residual = 0.0483887033048581, Final residual = 1.324637271362991e-16, No Iterations 2
DILUPBiCG:  Solving for p, Initial residual = 0.04852947809626079, Final residual = 1.555611820069575e-08, No Iterations 1
diagonal:  Solving for rho, Initial residual = 0, Final residual = 0, No Iterations 0
time step continuity errors : sum local = 8.276655596407344e-16, global = 2.983834550498201e-16, cumulative = -4.416487818482246e-15
DILUPBiCG:  Solving for p, Initial residual = 1.775242391885629e-08, Final residual = 2.30774201563591e-13, No Iterations 1
diagonal:  Solving for rho, Initial residual = 0, Final residual = 0, No Iterations 0
time step continuity errors : sum local = 2.621974799003457e-16, global = -2.510927188423561e-16, cumulative = -4.667580537324602e-15
DILUPBiCG:  Solving for k, Initial residual = 0.1062105485676244, Final residual = 2.020138264762888e-16, No Iterations 2
ExecutionTime = 289.25 s  ClockTime = 1257 s

ORIG_COMP_STEP = 3.242565746999958
ORIG_IO_STEP = 30.51517369999999
Courant Number mean: 4.777941509113094e-10 max: 0.0009547802819188049
deltaT = 5.520614389124359e-08
Time = 3.25237e-07

PIMPLE: iteration 1
diagonal:  Solving for rho, Initial residual = 0, Final residual = 0, No Iterations 0
DILUPBiCG:  Solving for Ux, Initial residual = 0.1648300728406688, Final residual = 1.798727997727541e-16, No Iterations 2
DILUPBiCG:  Solving for Uy, Initial residual = 0.164830072838003, Final residual = 1.852785188123589e-16, No Iterations 2
DILUPBiCG:  Solving for Uz, Initial residual = 0.04832053617920467, Final residual = 1.127264441972394e-17, No Iterations 2
DILUPBiCG:  Solving for e, Initial residual = 0.04809550956726035, Final residual = 2.872303942052588e-16, No Iterations 2
DILUPBiCG:  Solving for p, Initial residual = 0.04826449971782022, Final residual = 2.252561481223981e-08, No Iterations 1
diagonal:  Solving for rho, Initial residual = 0, Final residual = 0, No Iterations 0
time step continuity errors : sum local = 1.185792801167092e-15, global = 1.151219023137499e-15, cumulative = -3.516361514187103e-15
DILUPBiCG:  Solving for p, Initial residual = 2.4593232444067e-08, Final residual = 3.946227718137541e-13, No Iterations 1
diagonal:  Solving for rho, Initial residual = 0, Final residual = 0, No Iterations 0
time step continuity errors : sum local = 2.605901303839716e-16, global = 2.013259709189835e-16, cumulative = -3.315035543268119e-15
DILUPBiCG:  Solving for k, Initial residual = 0.1051117265795678, Final residual = 4.607589144300261e-16, No Iterations 2
ExecutionTime = 298.6 s  ClockTime = 1298 s

ORIG_COMP_STEP = 9.272084360999997
ORIG_IO_STEP = 27.28312909800002
Courant Number mean: 5.736402039761866e-10 max: 0.001144766058994375
deltaT = 6.62473726694923e-08
Time = 3.91484e-07

PIMPLE: iteration 1
diagonal:  Solving for rho, Initial residual = 0, Final residual = 0, No Iterations 0
DILUPBiCG:  Solving for Ux, Initial residual = 0.1642107993105003, Final residual = 2.535497754881338e-16, No Iterations 2
DILUPBiCG:  Solving for Uy, Initial residual = 0.1642107993016439, Final residual = 2.503547028792325e-16, No Iterations 2
DILUPBiCG:  Solving for Uz, Initial residual = 0.04809010279521161, Final residual = 2.837651883301489e-17, No Iterations 2
DILUPBiCG:  Solving for e, Initial residual = 0.04782154134612927, Final residual = 6.344298056487207e-16, No Iterations 2
DILUPBiCG:  Solving for p, Initial residual = 0.04802442711861542, Final residual = 3.269970425040873e-08, No Iterations 1
diagonal:  Solving for rho, Initial residual = 0, Final residual = 0, No Iterations 0
time step continuity errors : sum local = 1.929892018541161e-15, global = 1.918258539279342e-15, cumulative = -1.396777003988778e-15
DILUPBiCG:  Solving for p, Initial residual = 3.484621564863835e-08, Final residual = 6.93224081248203e-13, No Iterations 1
diagonal:  Solving for rho, Initial residual = 0, Final residual = 0, No Iterations 0
time step continuity errors : sum local = 2.35980306311252e-16, global = 2.272468067862326e-16, cumulative = -1.169530197202545e-15
DILUPBiCG:  Solving for k, Initial residual = 0.1041747324279741, Final residual = 1.065514308265016e-15, No Iterations 2
ExecutionTime = 301.68 s  ClockTime = 1335 s

ORIG_COMP_STEP = 2.962301009000043
ORIG_IO_STEP = 25.24345234500004
Courant Number mean: 6.888247243051256e-10 max: 0.001372384141132094
deltaT = 7.949684720339076e-08
Time = 4.70981e-07

PIMPLE: iteration 1
diagonal:  Solving for rho, Initial residual = 0, Final residual = 0, No Iterations 0
DILUPBiCG:  Solving for Ux, Initial residual = 0.1636533358824057, Final residual = 1.4195013402102e-15, No Iterations 2
DILUPBiCG:  Solving for Uy, Initial residual = 0.1636533358627156, Final residual = 1.415563028888497e-15, No Iterations 2
DILUPBiCG:  Solving for Uz, Initial residual = 0.04787763428162164, Final residual = 1.992791470135129e-16, No Iterations 2
DILUPBiCG:  Solving for e, Initial residual = 0.04755744970376002, Final residual = 1.424309446331338e-15, No Iterations 2
DILUPBiCG:  Solving for p, Initial residual = 0.04780104386485708, Final residual = 4.759647554178569e-08, No Iterations 1
diagonal:  Solving for rho, Initial residual = 0, Final residual = 0, No Iterations 0
time step continuity errors : sum local = 3.154159437403947e-15, global = 3.126498963791065e-15, cumulative = 1.95696876658852e-15
DILUPBiCG:  Solving for p, Initial residual = 5.094301774315477e-08, Final residual = 4.003413347342024e-19, No Iterations 2
diagonal:  Solving for rho, Initial residual = 0, Final residual = 0, No Iterations 0
time step continuity errors : sum local = 1.485671043204427e-16, global = 1.25551914321979e-16, cumulative = 2.082520680910499e-15
DILUPBiCG:  Solving for k, Initial residual = 0.1033713883585029, Final residual = 2.493257545554174e-15, No Iterations 2
ExecutionTime = 312.77 s  ClockTime = 1371 s

ORIG_COMP_STEP = 11.05323835799993
ORIG_IO_STEP = 20.45435994599995
Courant Number mean: 8.273193613805709e-10 max: 0.00164504366023668
deltaT = 9.53962166440689e-08
Time = 5.66377e-07

PIMPLE: iteration 1
diagonal:  Solving for rho, Initial residual = 0, Final residual = 0, No Iterations 0
DILUPBiCG:  Solving for Ux, Initial residual = 0.1631387898100008, Final residual = 5.183567079928712e-15, No Iterations 2
DILUPBiCG:  Solving for Uy, Initial residual = 0.1631387897925911, Final residual = 5.176859076872788e-15, No Iterations 2
DILUPBiCG:  Solving for Uz, Initial residual = 0.04767591954171073, Final residual = 8.232325880257956e-16, No Iterations 2
DILUPBiCG:  Solving for e, Initial residual = 0.04729465177714515, Final residual = 3.243219322770232e-15, No Iterations 2
DILUPBiCG:  Solving for p, Initial residual = 0.04758713433186548, Final residual = 6.94808722229561e-08, No Iterations 1
diagonal:  Solving for rho, Initial residual = 0, Final residual = 0, No Iterations 0
time step continuity errors : sum local = 5.734578812167431e-15, global = 5.72729899831578e-15, cumulative = 7.80981967922628e-15
DILUPBiCG:  Solving for p, Initial residual = 7.474753260773874e-08, Final residual = 1.279604532451641e-18, No Iterations 2
diagonal:  Solving for rho, Initial residual = 0, Final residual = 0, No Iterations 0
time step continuity errors : sum local = 5.141672251524132e-16, global = 5.088469557164646e-16, cumulative = 8.318666634942745e-15
DILUPBiCG:  Solving for k, Initial residual = 0.1026784509965506, Final residual = 5.893004649097641e-15, No Iterations 2
ExecutionTime = 315.97 s  ClockTime = 1401 s

ORIG_COMP_STEP = 3.107713116000014
ORIG_IO_STEP = 31.58867218
Courant Number mean: 9.939557313262854e-10 max: 0.001971613580785861
deltaT = 1.144754599728827e-07
Time = 6.80853e-07

PIMPLE: iteration 1
diagonal:  Solving for rho, Initial residual = 0, Final residual = 0, No Iterations 0
DILUPBiCG:  Solving for Ux, Initial residual = 0.1626503688766034, Final residual = 1.704721739355473e-14, No Iterations 2
DILUPBiCG:  Solving for Uy, Initial residual = 0.1626503688628911, Final residual = 1.703570282064864e-14, No Iterations 2
DILUPBiCG:  Solving for Uz, Initial residual = 0.0474784046881582, Final residual = 2.914544676027074e-15, No Iterations 2
DILUPBiCG:  Solving for e, Initial residual = 0.04702510085126588, Final residual = 7.475443755460326e-15, No Iterations 2
DILUPBiCG:  Solving for p, Initial residual = 0.04737625335895312, Final residual = 1.017492686315405e-07, No Iterations 1
diagonal:  Solving for rho, Initial residual = 0, Final residual = 0, No Iterations 0
time step continuity errors : sum local = 9.340647831390034e-15, global = 9.016500709770283e-15, cumulative = 1.733516734471303e-14
DILUPBiCG:  Solving for p, Initial residual = 1.115956939652285e-07, Final residual = 4.234748885931156e-18, No Iterations 2
diagonal:  Solving for rho, Initial residual = 0, Final residual = 0, No Iterations 0
time step continuity errors : sum local = 1.772172640511765e-16, global = -1.344190667084451e-16, cumulative = 1.720074827800458e-14
DILUPBiCG:  Solving for k, Initial residual = 0.1020765841820721, Final residual = 1.404789454989228e-14, No Iterations 2
ExecutionTime = 323.05 s  ClockTime = 1442 s

ORIG_COMP_STEP = 6.961817182999994
ORIG_IO_STEP = 33.04666448299997
Courant Number mean: 1.194639434053396e-09 max: 0.002362724964296518
deltaT = 1.373705519674592e-07
Time = 8.18223e-07

PIMPLE: iteration 1
diagonal:  Solving for rho, Initial residual = 0, Final residual = 0, No Iterations 0
DILUPBiCG:  Solving for Ux, Initial residual = 0.1621728601122847, Final residual = 5.371595367970382e-14, No Iterations 2
DILUPBiCG:  Solving for Uy, Initial residual = 0.1621728601010561, Final residual = 5.369611044857117e-14, No Iterations 2
DILUPBiCG:  Solving for Uz, Initial residual = 0.04727900098927773, Final residual = 9.615299076612005e-15, No Iterations 2
DILUPBiCG:  Solving for e, Initial residual = 0.04674102011495811, Final residual = 1.740957178604174e-14, No Iterations 2
DILUPBiCG:  Solving for p, Initial residual = 0.04716253932809921, Final residual = 1.495219972473677e-07, No Iterations 1
diagonal:  Solving for rho, Initial residual = 0, Final residual = 0, No Iterations 0
time step continuity errors : sum local = 1.639168759305065e-14, global = 1.635781882297559e-14, cumulative = 3.355856710098018e-14
DILUPBiCG:  Solving for p, Initial residual = 1.681539086812135e-07, Final residual = 1.429462171335722e-17, No Iterations 2
diagonal:  Solving for rho, Initial residual = 0, Final residual = 0, No Iterations 0
time step continuity errors : sum local = 2.532284498403437e-16, global = 2.374237665847751e-16, cumulative = 3.379599086756495e-14
DILUPBiCG:  Solving for k, Initial residual = 0.1015495954087983, Final residual = 3.373091307348463e-14, No Iterations 2
ExecutionTime = 326.14 s  ClockTime = 1482 s

ORIG_COMP_STEP = 2.963061559999915
ORIG_IO_STEP = 32.54265144600004
Courant Number mean: 1.436633858689536e-09 max: 0.002831151431704838
deltaT = 1.64844662360951e-07
Time = 9.83068e-07

PIMPLE: iteration 1
diagonal:  Solving for rho, Initial residual = 0, Final residual = 0, No Iterations 0
DILUPBiCG:  Solving for Ux, Initial residual = 0.1616922562892936, Final residual = 1.656327482690147e-13, No Iterations 2
DILUPBiCG:  Solving for Uy, Initial residual = 0.1616922562809946, Final residual = 1.655983474873279e-13, No Iterations 2
DILUPBiCG:  Solving for Uz, Initial residual = 0.04707195402062961, Final residual = 3.052217957467114e-14, No Iterations 2
DILUPBiCG:  Solving for e, Initial residual = 0.04643487119161319, Final residual = 4.08979761083453e-14, No Iterations 2
DILUPBiCG:  Solving for p, Initial residual = 0.0469406776241833, Final residual = 2.205612030471246e-07, No Iterations 1
diagonal:  Solving for rho, Initial residual = 0, Final residual = 0, No Iterations 0
time step continuity errors : sum local = 2.874331135240247e-14, global = 2.870053449238527e-14, cumulative = 6.249652535995023e-14
DILUPBiCG:  Solving for p, Initial residual = 2.54997135988403e-07, Final residual = 4.888289894297183e-17, No Iterations 2
diagonal:  Solving for rho, Initial residual = 0, Final residual = 0, No Iterations 0
time step continuity errors : sum local = 2.019389824783986e-16, global = 1.952092327913146e-16, cumulative = 6.269173459274154e-14
DILUPBiCG:  Solving for k, Initial residual = 0.1010838674336092, Final residual = 8.149096047943271e-14, No Iterations 2
ExecutionTime = 332.59 s  ClockTime = 1522 s

ORIG_COMP_STEP = 6.349848903999941
ORIG_IO_STEP = 43.37848866499996
Courant Number mean: 1.728944985973843e-09 max: 0.003392299833640207
deltaT = 1.978135948331412e-07
Time = 1.18088e-06

PIMPLE: iteration 1
diagonal:  Solving for rho, Initial residual = 0, Final residual = 0, No Iterations 0
DILUPBiCG:  Solving for Ux, Initial residual = 0.1611955234861892, Final residual = 5.044412978735043e-13, No Iterations 2
DILUPBiCG:  Solving for Uy, Initial residual = 0.1611955234800254, Final residual = 5.043810538229058e-13, No Iterations 2
DILUPBiCG:  Solving for Uz, Initial residual = 0.0468517802905618, Final residual = 9.466019472401365e-14, No Iterations 2
DILUPBiCG:  Solving for e, Initial residual = 0.04609931016919035, Final residual = 9.676600536252751e-14, No Iterations 2
DILUPBiCG:  Solving for p, Initial residual = 0.0467058864815247, Final residual = 3.26698970238768e-07, No Iterations 1
diagonal:  Solving for rho, Initial residual = 0, Final residual = 0, No Iterations 0
time step continuity errors : sum local = 5.110466385845395e-14, global = 4.987867795119277e-14, cumulative = 1.125704125439343e-13
DILUPBiCG:  Solving for p, Initial residual = 3.884918869192516e-07, Final residual = 1.689285703559915e-16, No Iterations 2
diagonal:  Solving for rho, Initial residual = 0, Final residual = 0, No Iterations 0
time step continuity errors : sum local = 5.933606680203278e-16, global = -5.919797987858409e-16, cumulative = 1.119784327451485e-13
DILUPBiCG:  Solving for k, Initial residual = 0.1006679339551799, Final residual = 1.979025650687269e-13, No Iterations 2
ExecutionTime = 342.84 s  ClockTime = 1576 s

ORIG_COMP_STEP = 10.12272671699998
ORIG_IO_STEP = 42.54289907600014
Courant Number mean: 2.082855556039322e-09 max: 0.0040648621432262
deltaT = 2.373763137997695e-07
Time = 1.41826e-06

PIMPLE: iteration 1
diagonal:  Solving for rho, Initial residual = 0, Final residual = 0, No Iterations 0
DILUPBiCG:  Solving for Ux, Initial residual = 0.1606705278422037, Final residual = 1.865087421208809e-18, No Iterations 3
[...]
ExecutionTime = 2610.28 s  ClockTime = 11374 s

ORIG_COMP_STEP = 20.85211637400062
ORIG_IO_STEP = 89.92060843800027
Courant Number mean: 1.089421637967302e-06 max: 0.200173191151603
deltaT = 2.740098046525437e-06
Time = 0.000170549

PIMPLE: iteration 1
diagonal:  Solving for rho, Initial residual = 0, Final residual = 0, No Iterations 0
DILUPBiCG:  Solving for Ux, Initial residual = 0.0163428528667057, Final residual = 4.514902438690585e-13, No Iterations 5
DILUPBiCG:  Solving for Uy, Initial residual = 0.01634283427752058, Final residual = 4.813053112516376e-13, No Iterations 5
DILUPBiCG:  Solving for Uz, Initial residual = 0.008070807865198612, Final residual = 2.201224327288184e-13, No Iterations 5
DILUPBiCG:  Solving for e, Initial residual = 0.01129101850364619, Final residual = 7.343041980154771e-13, No Iterations 4
DILUPBiCG:  Solving for p, Initial residual = 0.01468223950738422, Final residual = 2.93590843925082e-05, No Iterations 1
diagonal:  Solving for rho, Initial residual = 0, Final residual = 0, No Iterations 0
time step continuity errors : sum local = 6.004565459067294e-10, global = -1.470015489059546e-10, cumulative = -3.144171876308037e-09
DILUPBiCG:  Solving for p, Initial residual = 0.0001191119118698718, Final residual = 4.726700897898716e-14, No Iterations 5
diagonal:  Solving for rho, Initial residual = 0, Final residual = 0, No Iterations 0
time step continuity errors : sum local = 1.730506091340807e-16, global = -7.439049507025992e-17, cumulative = -3.144171950698531e-09
DILUPBiCG:  Solving for k, Initial residual = 0.009100858724013552, Final residual = 7.517345875054925e-13, No Iterations 5
ExecutionTime = 2638.64 s  ClockTime = 11502 s

ORIG_COMP_STEP = 28.14649525099958
ORIG_IO_STEP = 92.63696977600011
Courant Number mean: 1.115008608686723e-06 max: 0.1996717278731946
deltaT = 2.744602929730318e-06
Time = 0.000173294

PIMPLE: iteration 1
diagonal:  Solving for rho, Initial residual = 0, Final residual = 0, No Iterations 0
DILUPBiCG:  Solving for Ux, Initial residual = 0.0161999001661038, Final residual = 3.875600503828136e-13, No Iterations 5
DILUPBiCG:  Solving for Uy, Initial residual = 0.01619988586636786, Final residual = 4.132421151695844e-13, No Iterations 5
DILUPBiCG:  Solving for Uz, Initial residual = 0.008006873157143284, Final residual = 2.051342263346199e-13, No Iterations 5
DILUPBiCG:  Solving for e, Initial residual = 0.01123261670917007, Final residual = 7.476201089227706e-13, No Iterations 4
DILUPBiCG:  Solving for p, Initial residual = 0.01462798478879671, Final residual = 2.953483598155218e-05, No Iterations 1
diagonal:  Solving for rho, Initial residual = 0, Final residual = 0, No Iterations 0
time step continuity errors : sum local = 6.147736767257175e-10, global = -1.55393306096237e-10, cumulative = -3.299565256794769e-09
DILUPBiCG:  Solving for p, Initial residual = 0.0001039139226942851, Final residual = 8.625076928396108e-15, No Iterations 5
diagonal:  Solving for rho, Initial residual = 0, Final residual = 0, No Iterations 0
time step continuity errors : sum local = 1.735474779887791e-16, global = -7.814368467743226e-17, cumulative = -3.299565334938453e-09
DILUPBiCG:  Solving for k, Initial residual = 0.009157638788930918, Final residual = 7.838214451373307e-15, No Iterations 6
ExecutionTime = 2649.53 s  ClockTime = 11620 s

ORIG_COMP_STEP = 10.57121607199952
ORIG_IO_STEP = 86.66246706899983
Courant Number mean: 1.14394158553699e-06 max: 0.199570440612165
deltaT = 2.750510467693986e-06
Time = 0.000176044

PIMPLE: iteration 1
diagonal:  Solving for rho, Initial residual = 0, Final residual = 0, No Iterations 0
DILUPBiCG:  Solving for Ux, Initial residual = 0.016071116445628, Final residual = 3.43735392496064e-13, No Iterations 5
DILUPBiCG:  Solving for Uy, Initial residual = 0.01607110193635739, Final residual = 3.661817313184383e-13, No Iterations 5
DILUPBiCG:  Solving for Uz, Initial residual = 0.007960308467140997, Final residual = 1.951539238568046e-13, No Iterations 5
DILUPBiCG:  Solving for e, Initial residual = 0.01116875394977365, Final residual = 7.239890598915094e-13, No Iterations 4
DILUPBiCG:  Solving for p, Initial residual = 0.01457555059028853, Final residual = 3.019639615842038e-05, No Iterations 1
diagonal:  Solving for rho, Initial residual = 0, Final residual = 0, No Iterations 0
time step continuity errors : sum local = 6.395826231901837e-10, global = -1.74666499519592e-10, cumulative = -3.474231834458045e-09
DILUPBiCG:  Solving for p, Initial residual = 0.0001085984970215979, Final residual = 1.845787915107492e-14, No Iterations 5
diagonal:  Solving for rho, Initial residual = 0, Final residual = 0, No Iterations 0
time step continuity errors : sum local = 1.837984920378071e-16, global = 1.054676744483339e-16, cumulative = -3.474231728990371e-09
DILUPBiCG:  Solving for k, Initial residual = 0.009185266345711032, Final residual = 4.310913726228509e-14, No Iterations 5
ExecutionTime = 2677.51 s  ClockTime = 11738 s

ORIG_COMP_STEP = 27.78902683900014
ORIG_IO_STEP = 95.66192892700019
Courant Number mean: 1.173923914905698e-06 max: 0.1996187391933125
deltaT = 2.755763791324575e-06
Time = 0.0001788

PIMPLE: iteration 1
diagonal:  Solving for rho, Initial residual = 0, Final residual = 0, No Iterations 0
DILUPBiCG:  Solving for Ux, Initial residual = 0.01592372504546814, Final residual = 3.115308840113229e-13, No Iterations 5
DILUPBiCG:  Solving for Uy, Initial residual = 0.01592371482399579, Final residual = 3.316265580842325e-13, No Iterations 5
DILUPBiCG:  Solving for Uz, Initial residual = 0.007903516260769303, Final residual = 1.876566118737588e-13, No Iterations 5
DILUPBiCG:  Solving for e, Initial residual = 0.01116932166705477, Final residual = 6.388667187454181e-13, No Iterations 4
DILUPBiCG:  Solving for p, Initial residual = 0.01457935240672077, Final residual = 2.990088885154077e-05, No Iterations 1
diagonal:  Solving for rho, Initial residual = 0, Final residual = 0, No Iterations 0
time step continuity errors : sum local = 6.443172536891119e-10, global = -1.676651788789317e-10, cumulative = -3.641896907869302e-09
DILUPBiCG:  Solving for p, Initial residual = 0.0001031358753557693, Final residual = 8.034956408262413e-13, No Iterations 4
diagonal:  Solving for rho, Initial residual = 0, Final residual = 0, No Iterations 0
time step continuity errors : sum local = 1.845267437696215e-16, global = -5.281979131739156e-17, cumulative = -3.641896960689094e-09
DILUPBiCG:  Solving for k, Initial residual = 0.009187973467003474, Final residual = 3.217016464587033e-15, No Iterations 6
ExecutionTime = 2711.94 s  ClockTime = 11869 s

ORIG_COMP_STEP = 34.27687888500077
ORIG_IO_STEP = 95.10590307200073
Courant Number mean: 1.203828999827185e-06 max: 0.1994609918340773
deltaT = 2.76321075713587e-06
Time = 0.000181563

PIMPLE: iteration 1
diagonal:  Solving for rho, Initial residual = 0, Final residual = 0, No Iterations 0
DILUPBiCG:  Solving for Ux, Initial residual = 0.01577927392413206, Final residual = 2.934496866694058e-13, No Iterations 5
DILUPBiCG:  Solving for Uy, Initial residual = 0.01577926268649382, Final residual = 3.12488395324961e-13, No Iterations 5
DILUPBiCG:  Solving for Uz, Initial residual = 0.00782544817769701, Final residual = 1.82891020782302e-13, No Iterations 5
DILUPBiCG:  Solving for e, Initial residual = 0.01124072782268411, Final residual = 5.881067709197597e-13, No Iterations 4
DILUPBiCG:  Solving for p, Initial residual = 0.01458640050298686, Final residual = 2.985129739607012e-05, No Iterations 1
diagonal:  Solving for rho, Initial residual = 0, Final residual = 0, No Iterations 0
time step continuity errors : sum local = 6.542669512702106e-10, global = -1.642341800980141e-10, cumulative = -3.806131140787108e-09
DILUPBiCG:  Solving for p, Initial residual = 0.0001073493426579616, Final residual = 3.55004002375568e-14, No Iterations 5
diagonal:  Solving for rho, Initial residual = 0, Final residual = 0, No Iterations 0
time step continuity errors : sum local = 1.62540228560603e-16, global = 1.836851282580961e-18, cumulative = -3.806131138950257e-09
DILUPBiCG:  Solving for k, Initial residual = 0.009176083388733271, Final residual = 2.912171562762252e-14, No Iterations 5
ExecutionTime = 2716.7 s  ClockTime = 11983 s

ORIG_COMP_STEP = 4.389640772998973
ORIG_IO_STEP = 88.07334227400133
Courant Number mean: 1.235034088021683e-06 max: 0.1990571691090352
deltaT = 2.776298657821548e-06
Time = 0.000184339

PIMPLE: iteration 1
diagonal:  Solving for rho, Initial residual = 0, Final residual = 0, No Iterations 0
DILUPBiCG:  Solving for Ux, Initial residual = 0.01565915863274255, Final residual = 2.881308144144301e-13, No Iterations 5
DILUPBiCG:  Solving for Uy, Initial residual = 0.01565914556733983, Final residual = 3.069477084852859e-13, No Iterations 5
DILUPBiCG:  Solving for Uz, Initial residual = 0.007787312946170139, Final residual = 1.827285459335678e-13, No Iterations 5
DILUPBiCG:  Solving for e, Initial residual = 0.0112163109615618, Final residual = 5.514393581242178e-13, No Iterations 4
DILUPBiCG:  Solving for p, Initial residual = 0.0145196494157637, Final residual = 2.999835749039344e-05, No Iterations 1
diagonal:  Solving for rho, Initial residual = 0, Final residual = 0, No Iterations 0
time step continuity errors : sum local = 6.686199019927911e-10, global = -1.664796190393648e-10, cumulative = -3.972610757989621e-09
DILUPBiCG:  Solving for p, Initial residual = 0.0001062800566096531, Final residual = 1.650661158837166e-13, No Iterations 5
diagonal:  Solving for rho, Initial residual = 0, Final residual = 0, No Iterations 0
time step continuity errors : sum local = 1.722942417873423e-16, global = -6.461080851884187e-17, cumulative = -3.97261082260043e-09
DILUPBiCG:  Solving for k, Initial residual = 0.009160480329051963, Final residual = 1.125102716062839e-13, No Iterations 5
ExecutionTime = 2728.87 s  ClockTime = 12100 s

ORIG_COMP_STEP = 11.85932205900099
ORIG_IO_STEP = 90.55020045999845
Courant Number mean: 1.269375993298644e-06 max: 0.198456491948601
deltaT = 2.797891498092769e-06
Time = 0.000187137

PIMPLE: iteration 1
diagonal:  Solving for rho, Initial residual = 0, Final residual = 0, No Iterations 0
DILUPBiCG:  Solving for Ux, Initial residual = 0.01562081138887934, Final residual = 2.923094099093683e-13, No Iterations 5
DILUPBiCG:  Solving for Uy, Initial residual = 0.01562080341842345, Final residual = 3.116054040534332e-13, No Iterations 5
DILUPBiCG:  Solving for Uz, Initial residual = 0.007790261399868922, Final residual = 1.88519754164779e-13, No Iterations 5
DILUPBiCG:  Solving for e, Initial residual = 0.01124773100328584, Final residual = 2.653155608866905e-14, No Iterations 5
DILUPBiCG:  Solving for p, Initial residual = 0.01462938621246783, Final residual = 3.018024846871705e-05, No Iterations 1
diagonal:  Solving for rho, Initial residual = 0, Final residual = 0, No Iterations 0
time step continuity errors : sum local = 6.839723034037803e-10, global = -1.667508638646261e-10, cumulative = -4.139361686465056e-09
DILUPBiCG:  Solving for p, Initial residual = 0.000104367892286597, Final residual = 2.744322052723777e-14, No Iterations 5
diagonal:  Solving for rho, Initial residual = 0, Final residual = 0, No Iterations 0
time step continuity errors : sum local = 1.625534994606754e-16, global = 3.26891521489022e-19, cumulative = -4.139361686138165e-09
DILUPBiCG:  Solving for k, Initial residual = 0.009179458692638814, Final residual = 1.14853064489007e-14, No Iterations 5
ExecutionTime = 2745.42 s  ClockTime = 12221 s

ORIG_COMP_STEP = 16.27323818100012
ORIG_IO_STEP = 94.99276944700068
Courant Number mean: 1.308394295622447e-06 max: 0.2007203245453854
deltaT = 2.78785071161054e-06
Time = 0.000189925

PIMPLE: iteration 1
diagonal:  Solving for rho, Initial residual = 0, Final residual = 0, No Iterations 0
DILUPBiCG:  Solving for Ux, Initial residual = 0.01545020659438364, Final residual = 2.822940427647341e-13, No Iterations 5
DILUPBiCG:  Solving for Uy, Initial residual = 0.01545019251184158, Final residual = 3.008475619937533e-13, No Iterations 5
DILUPBiCG:  Solving for Uz, Initial residual = 0.007699914584591789, Final residual = 1.853065068896793e-13, No Iterations 5
DILUPBiCG:  Solving for e, Initial residual = 0.01123464115715675, Final residual = 2.561575864176826e-14, No Iterations 5
DILUPBiCG:  Solving for p, Initial residual = 0.0145290861520719, Final residual = 2.909494038246689e-05, No Iterations 1
diagonal:  Solving for rho, Initial residual = 0, Final residual = 0, No Iterations 0
time step continuity errors : sum local = 6.703442177994107e-10, global = -1.468204507858126e-10, cumulative = -4.286182136923977e-09
DILUPBiCG:  Solving for p, Initial residual = 0.0001070534785288137, Final residual = 6.037782032758588e-13, No Iterations 5
diagonal:  Solving for rho, Initial residual = 0, Final residual = 0, No Iterations 0
time step continuity errors : sum local = 1.759975247968828e-16, global = 1.591117508093323e-17, cumulative = -4.286182121012803e-09
DILUPBiCG:  Solving for k, Initial residual = 0.009120976744551304, Final residual = 3.302491057576621e-14, No Iterations 5
ExecutionTime = 2773.64 s  ClockTime = 12357 s

ORIG_COMP_STEP = 27.99778729500031
ORIG_IO_STEP = 93.87763767799879
Courant Number mean: 1.332806033387016e-06 max: 0.2018908073409108
deltaT = 2.761741109790094e-06
Time = 0.000192687

PIMPLE: iteration 1
diagonal:  Solving for rho, Initial residual = 0, Final residual = 0, No Iterations 0
DILUPBiCG:  Solving for Ux, Initial residual = 0.01520657319561156, Final residual = 2.597576240631525e-13, No Iterations 5
DILUPBiCG:  Solving for Uy, Initial residual = 0.0152065569734306, Final residual = 2.779694897409096e-13, No Iterations 5
DILUPBiCG:  Solving for Uz, Initial residual = 0.007564070253702862, Final residual = 1.762412920129904e-13, No Iterations 5
DILUPBiCG:  Solving for e, Initial residual = 0.01109815469063757, Final residual = 2.298114662915138e-14, No Iterations 5
DILUPBiCG:  Solving for p, Initial residual = 0.01439539628192242, Final residual = 2.864532538178189e-05, No Iterations 1
diagonal:  Solving for rho, Initial residual = 0, Final residual = 0, No Iterations 0
time step continuity errors : sum local = 6.707480450604761e-10, global = -1.436119280560942e-10, cumulative = -4.429794049068897e-09
DILUPBiCG:  Solving for p, Initial residual = 9.965864130487113e-05, Final residual = 2.954418562101167e-14, No Iterations 5
diagonal:  Solving for rho, Initial residual = 0, Final residual = 0, No Iterations 0
time step continuity errors : sum local = 1.770843033482912e-16, global = -7.990729332676537e-17, cumulative = -4.42979412897619e-09
DILUPBiCG:  Solving for k, Initial residual = 0.009041540807149724, Final residual = 2.639355256647813e-14, No Iterations 5
ExecutionTime = 2799.44 s  ClockTime = 12486 s

ORIG_COMP_STEP = 25.5657663460006
ORIG_IO_STEP = 103.8581273
Courant Number mean: 1.348600526358295e-06 max: 0.201639137230455
deltaT = 2.73929074258403e-06
Time = 0.000195426

PIMPLE: iteration 1
diagonal:  Solving for rho, Initial residual = 0, Final residual = 0, No Iterations 0
DILUPBiCG:  Solving for Ux, Initial residual = 0.01496744094104197, Final residual = 2.383708459814807e-13, No Iterations 5
DILUPBiCG:  Solving for Uy, Initial residual = 0.01496742133958562, Final residual = 2.573515317944762e-13, No Iterations 5
DILUPBiCG:  Solving for Uz, Initial residual = 0.007421262914400348, Final residual = 1.671710513962643e-13, No Iterations 5
DILUPBiCG:  Solving for e, Initial residual = 0.01099163964143395, Final residual = 1.948682027938545e-14, No Iterations 5
DILUPBiCG:  Solving for p, Initial residual = 0.01416155397115824, Final residual = 2.804558252899368e-05, No Iterations 1
diagonal:  Solving for rho, Initial residual = 0, Final residual = 0, No Iterations 0
time step continuity errors : sum local = 6.672851859840471e-10, global = -1.3978045995221e-10, cumulative = -4.5695745889284e-09
DILUPBiCG:  Solving for p, Initial residual = 0.0001038440953625381, Final residual = 1.501873825007229e-14, No Iterations 5
diagonal:  Solving for rho, Initial residual = 0, Final residual = 0, No Iterations 0
time step continuity errors : sum local = 1.871133791906111e-16, global = 1.14739676884798e-16, cumulative = -4.569574474188723e-09
DILUPBiCG:  Solving for k, Initial residual = 0.008986299499342548, Final residual = 1.579323642903244e-14, No Iterations 5
ExecutionTime = 2818.87 s  ClockTime = 12619 s

ORIG_COMP_STEP = 19.12382607899963
ORIG_IO_STEP = 89.91173799699936
Courant Number mean: 1.3653151328653e-06 max: 0.2007926378967753
deltaT = 2.728477270159923e-06
Time = 0.000198155

PIMPLE: iteration 1
diagonal:  Solving for rho, Initial residual = 0, Final residual = 0, No Iterations 0
DILUPBiCG:  Solving for Ux, Initial residual = 0.01477826663437373, Final residual = 2.263316228440074e-13, No Iterations 5
DILUPBiCG:  Solving for Uy, Initial residual = 0.01477825266209725, Final residual = 2.47561063392838e-13, No Iterations 5
DILUPBiCG:  Solving for Uz, Initial residual = 0.007324384849442296, Final residual = 1.616145712028776e-13, No Iterations 5
DILUPBiCG:  Solving for e, Initial residual = 0.01087583133011822, Final residual = 1.873267370510529e-14, No Iterations 5
DILUPBiCG:  Solving for p, Initial residual = 0.01401919478858442, Final residual = 2.81686973146255e-05, No Iterations 1
diagonal:  Solving for rho, Initial residual = 0, Final residual = 0, No Iterations 0
time step continuity errors : sum local = 6.809767029590897e-10, global = -1.411271269512462e-10, cumulative = -4.710701601139969e-09
DILUPBiCG:  Solving for p, Initial residual = 9.662521270674213e-05, Final residual = 9.656694380793162e-13, No Iterations 4
diagonal:  Solving for rho, Initial residual = 0, Final residual = 0, No Iterations 0
time step continuity errors : sum local = 1.836569232797965e-16, global = 1.893221352836712e-17, cumulative = -4.710701582207755e-09
DILUPBiCG:  Solving for k, Initial residual = 0.008969784401148524, Final residual = 2.294635373384605e-16, No Iterations 6
ExecutionTime = 2850.59 s  ClockTime = 12743 s

ORIG_COMP_STEP = 31.54806376299894
ORIG_IO_STEP = 98.58951698300007
Courant Number mean: 1.387746991440404e-06 max: 0.2003269455578726
deltaT = 2.724024232048882e-06
Time = 0.000200879

PIMPLE: iteration 1
diagonal:  Solving for rho, Initial residual = 0, Final residual = 0, No Iterations 0
DILUPBiCG:  Solving for Ux, Initial residual = 0.01464910045184766, Final residual = 2.228954379745592e-13, No Iterations 5
DILUPBiCG:  Solving for Uy, Initial residual = 0.0146490942279131, Final residual = 2.479375455825828e-13, No Iterations 5
DILUPBiCG:  Solving for Uz, Initial residual = 0.007272441801330597, Final residual = 1.590309520411797e-13, No Iterations 5
DILUPBiCG:  Solving for e, Initial residual = 0.01085349799547148, Final residual = 1.171892891495464e-13, No Iterations 5
DILUPBiCG:  Solving for p, Initial residual = 0.01395323351866755, Final residual = 2.851058508592941e-05, No Iterations 1
diagonal:  Solving for rho, Initial residual = 0, Final residual = 0, No Iterations 0
time step continuity errors : sum local = 7.002526028252809e-10, global = -1.411408364910505e-10, cumulative = -4.851842418698806e-09
DILUPBiCG:  Solving for p, Initial residual = 9.638719606658737e-05, Final residual = 1.094052095732095e-14, No Iterations 5
diagonal:  Solving for rho, Initial residual = 0, Final residual = 0, No Iterations 0
time step continuity errors : sum local = 1.717292806703803e-16, global = -8.278296497695399e-17, cumulative = -4.851842501481771e-09
DILUPBiCG:  Solving for k, Initial residual = 0.008981224187493204, Final residual = 1.810274043591011e-16, No Iterations 6
ExecutionTime = 2871.04 s  ClockTime = 12877 s

ORIG_COMP_STEP = 20.15939045400046
ORIG_IO_STEP = 104.9160034019988
End

ORIG_IO_TIME = 8228.717642729103
ORIG_COMP_TIME = 1183.255692886557
Finalising parallel run
