/*---------------------------------------------------------------------------*\
| =========                 |                                                 |
| \\      /  F ield         | OpenFOAM: The Open Source CFD Toolbox           |
|  \\    /   O peration     | Version:  v1912                                 |
|   \\  /    A nd           | Website:  www.openfoam.com                      |
|    \\/     M anipulation  |                                                 |
\*---------------------------------------------------------------------------*/
Build  : _f3950763fe-20191219 OPENFOAM=1912
Arch   : "LSB;label=32;scalar=64"
Exec   : rhoPimpleAPIO_METRICS -parallel
Date   : Nov 16 2020
Time   : 14:41:29
Host   : s24r2b69
PID    : 210156
I/O    : uncollated
Case   : /gpfs/scratch/pr1ejg00/pr1ejg20/openfoam/apio_32M/96
nProcs : 96
Hosts  :
(
    (s24r2b69 48)
    (s24r2b70 48)
)
Pstream initialized with:
    floatTransfer      : 0
    nProcsSimpleSum    : 0
    commsType          : nonBlocking
    polling iterations : 0
trapFpe: Floating point exception trapping enabled (FOAM_SIGFPE).
fileModificationChecking : Monitoring run-time modified files using timeStampMaster (fileModificationSkew 10)
allowSystemOperations : Allowing user-supplied system call operations

// * * * * * * * * * * * * * * * * * * * * * * * * * * * * * * * * * * * * * //
Create time

Create mesh for time = 0


PIMPLE: Operating solver in PISO mode

Reading thermophysical properties

Selecting thermodynamics package 
{
    type            hePsiThermo;
    mixture         pureMixture;
    transport       const;
    thermo          eConst;
    equationOfState perfectGas;
    specie          specie;
    energy          sensibleInternalEnergy;
}

Reading field U

Reading/calculating face flux field phi

--> FOAM Warning : 
    From function Foam::pressureControl::pressureControl(const Foam::GeometricField<double, Foam::fvPatchField, Foam::volMesh> &, const Foam::GeometricField<double, Foam::fvPatchField, Foam::volMesh> &, const Foam::dictionary &, bool)
    in file cfdTools/general/pressureControl/pressureControl.C at line 123
    Reading "/gpfs/scratch/pr1ejg00/pr1ejg20/openfoam/apio_32M/96/system/fvSolution.PIMPLE"
    'rhoMax' specified rather than 'pMax' or 'pMaxFactor'
    This is supported for backward-compatibility but 'pMax' or 'pMaxFactor' are more reliable.
--> FOAM Warning : 
    From function Foam::pressureControl::pressureControl(const Foam::GeometricField<double, Foam::fvPatchField, Foam::volMesh> &, const Foam::GeometricField<double, Foam::fvPatchField, Foam::volMesh> &, const Foam::dictionary &, bool)
    in file cfdTools/general/pressureControl/pressureControl.C at line 178
    Reading "/gpfs/scratch/pr1ejg00/pr1ejg20/openfoam/apio_32M/96/system/fvSolution.PIMPLE"
    'rhoMin' specified rather than 'pMin' or 'pMinFactor'
    This is supported for backward-compatibility but 'pMin' or 'pMinFactor' are more reliable.
pressureControl
    pMax 1726187.557059955
    pMin 4747.015781914877

Creating turbulence model

Selecting turbulence model type LES
Selecting LES turbulence model kEqn
Selecting LES delta type cubeRootVol
LES
{
    LESModel        kEqn;
    turbulence      on;
    printCoeffs     on;
    delta           cubeRootVol;
    cubeRootVolCoeffs
    {
        deltaCoeff      1;
    }
    PrandtlCoeffs
    {
        delta           cubeRootVol;
        cubeRootVolCoeffs
        {
            deltaCoeff      1;
        }
        smoothCoeffs
        {
            delta           cubeRootVol;
            cubeRootVolCoeffs
            {
                deltaCoeff      1;
            }
            maxDeltaRatio   1.1;
        }
        Cdelta          0.158;
    }
    vanDriestCoeffs
    {
        delta           cubeRootVol;
        cubeRootVolCoeffs
        {
            deltaCoeff      1;
        }
        smoothCoeffs
        {
            delta           cubeRootVol;
            cubeRootVolCoeffs
            {
                deltaCoeff      1;
            }
            maxDeltaRatio   1.1;
        }
        Aplus           26;
        Cdelta          0.158;
    }
    smoothCoeffs
    {
        delta           cubeRootVol;
        cubeRootVolCoeffs
        {
            deltaCoeff      1;
        }
        maxDeltaRatio   1.1;
    }
    Ce              1.048;
    Ck              0.094;
}

Creating field dpdt

Creating field kinetic energy K

No MRF models present

No finite volume options present
APIO_procNo = 16
writeThread 16 on CPU 64
APIO_procNo = 1
writeThread 1 on CPU 49
APIO_procNo = 2
writeThread 2 on CPU 50
APIO_procNo = 32
APIO_procNo = 40
APIO_procNo = 34
writeThread 32 on CPU APIO_procNo = 33
writeThread 40 on CPU 88
80
writeThread 34 on CPU 82
writeThread 33 on CPU 81
APIO_procNo = 18
writeThread 18 on CPU 66
APIO_procNo = 24
APIO_procNo = 27
writeThread 24 on CPU 72
APIO_procNo = 25
writeThread 25 on CPU 73
APIO_procNo = 26
writeThread 26 on CPU 74
writeThread 27 on CPU 75
APIO_procNo = 0
APIO_masterNo = 0
writeThread 0 on CPU 48
APIO_procNo = 19
writeThread 19 on CPU 67
APIO_procNo = 8
APIO_procNo = 9
writeThread 8 on CPU 56
APIO_procNo = 10
writeThread 9 on CPU 57
writeThread 10 on CPU 58
APIO_procNo = 36
APIO_procNo = 38
APIO_procNo = 39
APIO_procNo = 3
writeThread 39 on CPU 87
writeThread 3 on CPU 51
APIO_procNo = 35
writeThread 35 on CPU 83
writeThread 36 on CPU 84
writeThread 38 on CPU 86
APIO_procNo = 12
writeThread 12 on CPU 60
APIO_procNo = 14
APIO_procNo = 15
writeThread 15 on CPU 63
writeThread 14 on CPU 62
APIO_procNo = 11
writeThread 11 on CPU 59
APIO_procNo = 44
APIO_procNo = 45
writeThread 44 on CPU APIO_procNo = 42
APIO_procNo = 43
92
writeThread 45 on CPU 93
writeThread 42 on CPU 90
writeThread 43 on CPU 91
APIO_procNo = 20
APIO_procNo = 21
writeThread 21 on CPU 69
writeThread 20 on CPU 68
APIO_procNo = 22
APIO_procNo = 23
writeThread 22 on CPU 70
writeThread 23 on CPU 71
APIO_procNo = 46
APIO_procNo = 47
APIO_procNo = 41
writeThread 46 on CPU 94
writeThread 47 on CPU 95
writeThread 41 on CPU 89
APIO_procNo = 37
APIO_procNo = 4
writeThread 4 on CPU 52
APIO_procNo = 5
writeThread 5 on CPU 53
APIO_procNo = 6
writeThread 6 on CPU 54
APIO_procNo = 7
writeThread 7 on CPU 55
writeThread 37 on CPU 85
APIO_procNo = 28
writeThread 28 on CPU 76
APIO_procNo = 29
writeThread 29 on CPU 77
APIO_procNo = 30
writeThread 30 on CPU 78
APIO_procNo = 31
writeThread 31 on CPU 79
APIO_procNo = 13
writeThread 13 on CPU 61
APIO_procNo = 17
writeThread 17 on CPU 65
APIO_procNo = 81
APIO_procNo = 82
APIO_procNo = 88
APIO_procNo = 89
APIO_procNo = 90
APIO_procNo = 91
APIO_procNo = 67
APIO_procNo = 84
APIO_procNo = 92
APIO_procNo = 93
APIO_procNo = 94
APIO_procNo = 95
APIO_procNo = 70
APIO_procNo = 85
APIO_procNo = 71
APIO_procNo = 69
writeThread 70 on CPU 70
writeThread 81 on CPU writeThread 91 on CPU 81
APIO_procNo = 86
APIO_procNo = 87
91
writeThread 82 on CPU 82
writeThread 93 on CPU 93
writeThread 95 on CPU 95
writeThread 69 on CPU 69
writeThread 71 on CPU 71
writeThread 84 on CPU 84
writeThread 92 on CPU 92
writeThread 94 on CPU 94
writeThread 85 on CPU 85
writeThread 86 on CPU 86
writeThread 87 on CPU 87
APIO_procNo = 80
APIO_procNo = 83
APIO_procNo = 64
writeThread 89 on CPU 89
writeThread 88 on CPU 88
writeThread 64 on CPU 64
writeThread 67 on CPU 67
APIO_procNo = 66
writeThread 80 on CPU 80
writeThread 83 on CPU 83
writeThread 90 on CPU 90
writeThread 66 on CPU 66
APIO_procNo = 68
writeThread 68 on CPU 68
APIO_procNo = 65
writeThread 65 on CPU 65
APIO_procNo = 48
writeThread 48 on CPU 48
APIO_procNo = 56
writeThread 56 on CPU 56
APIO_procNo = 58
writeThread 58 on CPU 58
APIO_procNo = 59
APIO_procNo = 60
APIO_procNo = 61
APIO_procNo = 62
APIO_procNo = 57
writeThread 61 on CPU 61
APIO_procNo = 63
writeThread 59 on CPU 59
writeThread 60 on CPU 60
writeThread 62 on CPU 62
APIO_procNo = 49
writeThread 57 on CPU 57
writeThread 63 on CPU 63
writeThread 49 on CPU 49
APIO_procNo = 50
APIO_procNo = 51
writeThread 50 on CPU 50
APIO_procNo = 52
APIO_procNo = 53
writeThread 51 on CPU 51
writeThread 52 on CPU 52
writeThread 53 on CPU 53
APIO_procNo = 54
writeThread 54 on CPU 54
APIO_procNo = 55
writeThread 55 on CPU 55
APIO_procNo = 72
APIO_procNo = 73
APIO_procNo = 74
APIO_procNo = 75
APIO_procNo = 76
APIO_procNo = 77
APIO_procNo = 78
writeThread 72 on CPU 72
APIO_procNo = 79
writeThread 77 on CPU 77
writeThread 78 on CPU 78
writeThread 73 on CPU writeThread 74 on CPU writeThread 75 on CPU writeThread 76 on CPU 76
73
74
75
writeThread 79 on CPU 79
Courant Number mean: 4.134521852248256e-11 max: 2.085039370078741e-05

Starting time loop

Courant Number mean: 4.134521852248256e-11 max: 2.085039370078741e-05
deltaT = 1.2e-09
Time = 1.2e-09

PIMPLE: iteration 1
diagonal:  Solving for rho, Initial residual = 0, Final residual = 0, No Iterations 0
DILUPBiCG:  Solving for Ux, Initial residual = 1, Final residual = 1.867345971842485e-20, No Iterations 2
DILUPBiCG:  Solving for Uy, Initial residual = 1, Final residual = 2.934303887272859e-20, No Iterations 2
DILUPBiCG:  Solving for Uz, Initial residual = 1, Final residual = 3.534454601566138e-20, No Iterations 2
DILUPBiCG:  Solving for e, Initial residual = 0.999999013783808, Final residual = 1.421595318824863e-19, No Iterations 2
DILUPBiCG:  Solving for p, Initial residual = 0.9999996189081268, Final residual = 4.93165900928595e-10, No Iterations 1
pEqnloop: 0
diagonal:  Solving for rho, Initial residual = 0, Final residual = 0, No Iterations 0
time step continuity errors : sum local = 2.435104021756779e-16, global = -2.429143140517018e-16, cumulative = -2.429143140517018e-16
DILUPBiCG:  Solving for p, Initial residual = 1.177080390288981e-07, Final residual = 1.278862304342927e-16, No Iterations 1
pEqnloop: 1
diagonal:  Solving for rho, Initial residual = 0, Final residual = 0, No Iterations 0
time step continuity errors : sum local = 2.662399435747453e-16, global = -2.652123687073382e-16, cumulative = -5.081266827590401e-16
DILUPBiCG:  Solving for k, Initial residual = 0.9999999926663373, Final residual = 3.534911360518819e-20, No Iterations 2
ExecutionTime = 7.76 s  ClockTime = 16 s

APIO_IO_STEP = 0.0001690387725830078
Courant Number mean: 4.961451094383406e-11 max: 2.50199092129387e-05
deltaT = 1.44e-09
Time = 2.64e-09

PIMPLE: iteration 1
diagonal:  Solving for rho, Initial residual = 0, Final residual = 0, No Iterations 0
DILUPBiCG:  Solving for Ux, Initial residual = 0.3749195238070021, Final residual = 4.241320876707078e-21, No Iterations 2
DILUPBiCG:  Solving for Uy, Initial residual = 0.3749195237884183, Final residual = 6.65694782490583e-21, No Iterations 2
DILUPBiCG:  Solving for Uz, Initial residual = 0.2307601757169242, Final residual = 4.951528681876404e-21, No Iterations 2
DILUPBiCG:  Solving for e, Initial residual = 0.2307512351839677, Final residual = 1.987882814381444e-20, No Iterations 2
DILUPBiCG:  Solving for p, Initial residual = 0.2307584339321821, Final residual = 6.862276181566993e-11, No Iterations 1
pEqnloop: 0
diagonal:  Solving for rho, Initial residual = 0, Final residual = 0, No Iterations 0
time step continuity errors : sum local = 5.55677430153491e-16, global = -5.555380745272827e-16, cumulative = -1.063664757286323e-15
DILUPBiCG:  Solving for p, Initial residual = 7.790277711869296e-08, Final residual = 9.330315295896188e-15, No Iterations 1
pEqnloop: 1
diagonal:  Solving for rho, Initial residual = 0, Final residual = 0, No Iterations 0
time step continuity errors : sum local = 4.797769078028011e-16, global = -4.797726767362696e-16, cumulative = -1.543437434022592e-15
DILUPBiCG:  Solving for k, Initial residual = 0.7612500408486308, Final residual = 1.636159545592025e-20, No Iterations 2
ExecutionTime = 13.76 s  ClockTime = 30 s

APIO_IO_STEP = 2.588006019592285
Courant Number mean: 5.953777282914288e-11 max: 3.002308059560313e-05
deltaT = 1.728e-09
Time = 4.368e-09

PIMPLE: iteration 1
diagonal:  Solving for rho, Initial residual = 0, Final residual = 0, No Iterations 0
DILUPBiCG:  Solving for Ux, Initial residual = 0.3231077138651248, Final residual = 5.337417874573511e-21, No Iterations 2
DILUPBiCG:  Solving for Uy, Initial residual = 0.3231077123422528, Final residual = 8.348233962285396e-21, No Iterations 2
DILUPBiCG:  Solving for Uz, Initial residual = 0.1406145040464589, Final residual = 4.432028631631181e-21, No Iterations 2
DILUPBiCG:  Solving for e, Initial residual = 0.1406066231582642, Final residual = 1.76963984883668e-20, No Iterations 2
DILUPBiCG:  Solving for p, Initial residual = 0.1406128493569906, Final residual = 6.022634524709991e-11, No Iterations 1
pEqnloop: 0
diagonal:  Solving for rho, Initial residual = 0, Final residual = 0, No Iterations 0
time step continuity errors : sum local = 6.635807375594004e-16, global = -6.633531624379802e-16, cumulative = -2.206790596460572e-15
DILUPBiCG:  Solving for p, Initial residual = 5.020187395215986e-08, Final residual = 3.836047622912398e-14, No Iterations 1
pEqnloop: 1
diagonal:  Solving for rho, Initial residual = 0, Final residual = 0, No Iterations 0
time step continuity errors : sum local = 6.443179398669525e-16, global = -6.443174358894987e-16, cumulative = -2.851108032350071e-15
DILUPBiCG:  Solving for k, Initial residual = 0.5223926727264944, Final residual = 1.652669287064593e-20, No Iterations 2
ExecutionTime = 20.56 s  ClockTime = 44 s

APIO_IO_STEP = 9.441375732421875e-05
Courant Number mean: 7.144584772671964e-11 max: 3.602653054273845e-05
deltaT = 2.0736e-09
Time = 6.4416e-09

PIMPLE: iteration 1
diagonal:  Solving for rho, Initial residual = 0, Final residual = 0, No Iterations 0
DILUPBiCG:  Solving for Ux, Initial residual = 0.2861774404223538, Final residual = 6.980489862155693e-21, No Iterations 2
DILUPBiCG:  Solving for Uy, Initial residual = 0.2861774393354272, Final residual = 1.085056091398173e-20, No Iterations 2
DILUPBiCG:  Solving for Uz, Initial residual = 0.1060780689588396, Final residual = 4.988380098064273e-21, No Iterations 2
DILUPBiCG:  Solving for e, Initial residual = 0.1060690436076755, Final residual = 1.972876784177366e-20, No Iterations 2
DILUPBiCG:  Solving for p, Initial residual = 0.1060760698502095, Final residual = 6.544499178977695e-11, No Iterations 1
pEqnloop: 0
diagonal:  Solving for rho, Initial residual = 0, Final residual = 0, No Iterations 0
time step continuity errors : sum local = 3.531790136337251e-16, global = -3.495438125394008e-16, cumulative = -3.200651844889472e-15
DILUPBiCG:  Solving for p, Initial residual = 3.573142696284044e-08, Final residual = 7.446106656382092e-13, No Iterations 1
pEqnloop: 1
diagonal:  Solving for rho, Initial residual = 0, Final residual = 0, No Iterations 0
time step continuity errors : sum local = 3.781873066608428e-16, global = -3.774708499685062e-16, cumulative = -3.578122694857978e-15
DILUPBiCG:  Solving for k, Initial residual = 0.3755564138161146, Final residual = 1.779002228514448e-20, No Iterations 2
ExecutionTime = 30.37 s  ClockTime = 65 s

APIO_IO_STEP = 1.672466039657593
Courant Number mean: 8.573577152559639e-11 max: 4.323015923841611e-05
deltaT = 2.48832e-09
Time = 8.92992e-09

PIMPLE: iteration 1
diagonal:  Solving for rho, Initial residual = 0, Final residual = 0, No Iterations 0
DILUPBiCG:  Solving for Ux, Initial residual = 0.2580115686942526, Final residual = 9.404816889200655e-21, No Iterations 2
DILUPBiCG:  Solving for Uy, Initial residual = 0.2580115680223026, Final residual = 1.448728884674766e-20, No Iterations 2
DILUPBiCG:  Solving for Uz, Initial residual = 0.08805286406000599, Final residual = 6.2784798157786e-21, No Iterations 2
DILUPBiCG:  Solving for e, Initial residual = 0.08804227440312744, Final residual = 2.450172637486752e-20, No Iterations 2
DILUPBiCG:  Solving for p, Initial residual = 0.088050342006013, Final residual = 7.825907411287684e-11, No Iterations 1
pEqnloop: 0
diagonal:  Solving for rho, Initial residual = 0, Final residual = 0, No Iterations 0
time step continuity errors : sum local = 1.227441776501344e-16, global = -4.905193803637317e-17, cumulative = -3.627174632894351e-15
DILUPBiCG:  Solving for p, Initial residual = 2.001159126457993e-08, Final residual = 2.311908464101786e-14, No Iterations 1
pEqnloop: 1
diagonal:  Solving for rho, Initial residual = 0, Final residual = 0, No Iterations 0
time step continuity errors : sum local = 1.125314789061508e-16, global = -3.203793463103643e-17, cumulative = -3.659212567525388e-15
DILUPBiCG:  Solving for k, Initial residual = 0.2906877194078644, Final residual = 2.09982541667279e-20, No Iterations 2
ExecutionTime = 36.53 s  ClockTime = 78 s

APIO_IO_STEP = 0.0001034736633300781
Courant Number mean: 1.02884021222845e-10 max: 5.187377896431863e-05
deltaT = 2.985983999999999e-09
Time = 1.19159e-08

PIMPLE: iteration 1
diagonal:  Solving for rho, Initial residual = 0, Final residual = 0, No Iterations 0
DILUPBiCG:  Solving for Ux, Initial residual = 0.236902721517941, Final residual = 1.307203086289181e-20, No Iterations 2
DILUPBiCG:  Solving for Uy, Initial residual = 0.2369027211367382, Final residual = 1.989701845469248e-20, No Iterations 2
DILUPBiCG:  Solving for Uz, Initial residual = 0.07712864145542815, Final residual = 8.479175779589156e-21, No Iterations 2
DILUPBiCG:  Solving for e, Initial residual = 0.07711582304182871, Final residual = 3.254074940957213e-20, No Iterations 2
DILUPBiCG:  Solving for p, Initial residual = 0.07712531778941986, Final residual = 9.876442496651509e-11, No Iterations 1
pEqnloop: 0
diagonal:  Solving for rho, Initial residual = 0, Final residual = 0, No Iterations 0
time step continuity errors : sum local = 3.639021476126138e-16, global = 3.632031191641679e-16, cumulative = -3.29600944836122e-15
DILUPBiCG:  Solving for p, Initial residual = 1.313576752819708e-08, Final residual = 1.582232328782889e-14, No Iterations 1
pEqnloop: 1
diagonal:  Solving for rho, Initial residual = 0, Final residual = 0, No Iterations 0
time step continuity errors : sum local = 3.773812590150319e-16, global = 3.717894182008645e-16, cumulative = -2.924220030160355e-15
DILUPBiCG:  Solving for k, Initial residual = 0.2385158222449654, Final residual = 2.679487603025529e-20, No Iterations 2
ExecutionTime = 43.49 s  ClockTime = 92 s

APIO_IO_STEP = 0.04266166687011719
Courant Number mean: 1.234624193975875e-10 max: 6.224506732903095e-05
deltaT = 3.583180799999999e-09
Time = 1.54991e-08

PIMPLE: iteration 1
diagonal:  Solving for rho, Initial residual = 0, Final residual = 0, No Iterations 0
DILUPBiCG:  Solving for Ux, Initial residual = 0.2210519468211482, Final residual = 1.872603145332221e-20, No Iterations 2
DILUPBiCG:  Solving for Uy, Initial residual = 0.2210519465623987, Final residual = 2.80809901336506e-20, No Iterations 2
DILUPBiCG:  Solving for Uz, Initial residual = 0.06989951241209257, Final residual = 1.205509634717743e-20, No Iterations 2
DILUPBiCG:  Solving for e, Initial residual = 0.06988417042553378, Final residual = 4.53696762754864e-20, No Iterations 2
DILUPBiCG:  Solving for p, Initial residual = 0.06989549235754015, Final residual = 1.289775529201564e-10, No Iterations 1
pEqnloop: 0
diagonal:  Solving for rho, Initial residual = 0, Final residual = 0, No Iterations 0
time step continuity errors : sum local = 3.220353047032618e-16, global = 3.216771056583774e-16, cumulative = -2.602542924501978e-15
DILUPBiCG:  Solving for p, Initial residual = 1.012171121332891e-08, Final residual = 1.278167924575161e-14, No Iterations 1
pEqnloop: 1
diagonal:  Solving for rho, Initial residual = 0, Final residual = 0, No Iterations 0
time step continuity errors : sum local = 3.139300697289162e-16, global = 3.12883249956229e-16, cumulative = -2.289659674545749e-15
DILUPBiCG:  Solving for k, Initial residual = 0.20427830537597, Final residual = 3.645586039255192e-20, No Iterations 2
ExecutionTime = 50.58 s  ClockTime = 106 s

APIO_IO_STEP = 0.1315696239471436
Courant Number mean: 1.481572278482815e-10 max: 7.468909815230523e-05
deltaT = 4.299816959999999e-09
Time = 1.97989e-08

PIMPLE: iteration 1
diagonal:  Solving for rho, Initial residual = 0, Final residual = 0, No Iterations 0
DILUPBiCG:  Solving for Ux, Initial residual = 0.2090173750381694, Final residual = 2.760691735256208e-20, No Iterations 2
DILUPBiCG:  Solving for Uy, Initial residual = 0.2090173748692232, Final residual = 4.066540090924329e-20, No Iterations 2
DILUPBiCG:  Solving for Uz, Initial residual = 0.06483314997426107, Final residual = 1.785970596221585e-20, No Iterations 2
DILUPBiCG:  Solving for e, Initial residual = 0.06481487320251811, Final residual = 6.578688423768152e-20, No Iterations 2
DILUPBiCG:  Solving for p, Initial residual = 0.06482828870092161, Final residual = 1.724100693144463e-10, No Iterations 1
pEqnloop: 0
diagonal:  Solving for rho, Initial residual = 0, Final residual = 0, No Iterations 0
time step continuity errors : sum local = 1.385305035742874e-16, global = -6.740844355437948e-17, cumulative = -2.357068118100129e-15
DILUPBiCG:  Solving for p, Initial residual = 8.762701007439564e-09, Final residual = 1.203990887802515e-14, No Iterations 1
pEqnloop: 1
diagonal:  Solving for rho, Initial residual = 0, Final residual = 0, No Iterations 0
time step continuity errors : sum local = 1.370513531899877e-16, global = -8.599917556790559e-17, cumulative = -2.443067293668034e-15
DILUPBiCG:  Solving for k, Initial residual = 0.1805909976035947, Final residual = 5.239447354986951e-20, No Iterations 2
ExecutionTime = 59.9 s  ClockTime = 125 s

APIO_IO_STEP = 0.1665525436401367
Courant Number mean: 1.777920721976698e-10 max: 8.961976116517037e-05
deltaT = 5.159780351999998e-09
Time = 2.49587e-08

PIMPLE: iteration 1
diagonal:  Solving for rho, Initial residual = 0, Final residual = 0, No Iterations 0
DILUPBiCG:  Solving for Ux, Initial residual = 0.1997579942712492, Final residual = 4.183485762865135e-20, No Iterations 2
DILUPBiCG:  Solving for Uy, Initial residual = 0.1997579941289011, Final residual = 6.036145296706876e-20, No Iterations 2
DILUPBiCG:  Solving for Uz, Initial residual = 0.06113782169705939, Final residual = 2.740539164995106e-20, No Iterations 2
DILUPBiCG:  Solving for e, Initial residual = 0.06111597874594135, Final residual = 9.872056086874382e-20, No Iterations 2
DILUPBiCG:  Solving for p, Initial residual = 0.06113200424664907, Final residual = 2.343601274035819e-10, No Iterations 1
pEqnloop: 0
diagonal:  Solving for rho, Initial residual = 0, Final residual = 0, No Iterations 0
time step continuity errors : sum local = 2.840446108757539e-16, global = -2.768936279138564e-16, cumulative = -2.719960921581891e-15
DILUPBiCG:  Solving for p, Initial residual = 5.94556753629513e-09, Final residual = 9.04945657858828e-15, No Iterations 1
pEqnloop: 1
diagonal:  Solving for rho, Initial residual = 0, Final residual = 0, No Iterations 0
time step continuity errors : sum local = 2.793288469665993e-16, global = -2.749379023861631e-16, cumulative = -2.994898823968054e-15
DILUPBiCG:  Solving for k, Initial residual = 0.1635155365054972, Final residual = 7.907830631438453e-20, No Iterations 2
ExecutionTime = 67.3 s  ClockTime = 140 s

APIO_IO_STEP = 8.559226989746094e-05
Courant Number mean: 2.133554705015357e-10 max: 0.0001075334397309669
deltaT = 6.191736422399998e-09
Time = 3.11504e-08

PIMPLE: iteration 1
diagonal:  Solving for rho, Initial residual = 0, Final residual = 0, No Iterations 0
DILUPBiCG:  Solving for Ux, Initial residual = 0.1925420161370129, Final residual = 6.510728893651458e-20, No Iterations 2
DILUPBiCG:  Solving for Uy, Initial residual = 0.1925420160322816, Final residual = 9.237393615148713e-20, No Iterations 2
DILUPBiCG:  Solving for Uz, Initial residual = 0.05836292826111982, Final residual = 4.338345497702544e-20, No Iterations 2
DILUPBiCG:  Solving for e, Initial residual = 0.05833680928329717, Final residual = 1.529243941556972e-19, No Iterations 2
DILUPBiCG:  Solving for p, Initial residual = 0.0583559536344481, Final residual = 3.225641067797146e-10, No Iterations 1
pEqnloop: 0
diagonal:  Solving for rho, Initial residual = 0, Final residual = 0, No Iterations 0
time step continuity errors : sum local = 5.169935963442919e-16, global = -5.036437024380029e-16, cumulative = -3.498542526406056e-15
DILUPBiCG:  Solving for p, Initial residual = 4.015986241075873e-09, Final residual = 7.150103503932049e-15, No Iterations 1
pEqnloop: 1
diagonal:  Solving for rho, Initial residual = 0, Final residual = 0, No Iterations 0
time step continuity errors : sum local = 5.237264714033378e-16, global = -5.209522396118047e-16, cumulative = -4.019494766017861e-15
DILUPBiCG:  Solving for k, Initial residual = 0.1508058226569587, Final residual = 1.248759873532737e-19, No Iterations 2
ExecutionTime = 74.31999999999999 s  ClockTime = 154 s

APIO_IO_STEP = 0.01563763618469238
Courant Number mean: 2.560338970676933e-10 max: 0.0001290253889150598
deltaT = 7.430083706879997e-09
Time = 3.85805e-08

PIMPLE: iteration 1
diagonal:  Solving for rho, Initial residual = 0, Final residual = 0, No Iterations 0
DILUPBiCG:  Solving for Ux, Initial residual = 0.1868538218558342, Final residual = 1.040666349314731e-19, No Iterations 2
DILUPBiCG:  Solving for Uy, Initial residual = 0.1868538217773939, Final residual = 1.476919438615047e-19, No Iterations 2
DILUPBiCG:  Solving for Uz, Initial residual = 0.05623297147368288, Final residual = 7.063791136330073e-20, No Iterations 2
DILUPBiCG:  Solving for e, Initial residual = 0.05620172125708962, Final residual = 2.442588539272966e-19, No Iterations 2
DILUPBiCG:  Solving for p, Initial residual = 0.05622463906854776, Final residual = 4.48218527501331e-10, No Iterations 1
pEqnloop: 0
diagonal:  Solving for rho, Initial residual = 0, Final residual = 0, No Iterations 0
time step continuity errors : sum local = 2.5820389920919e-16, global = 2.377305535909114e-16, cumulative = -3.78176421242695e-15
DILUPBiCG:  Solving for p, Initial residual = 5.093051756417527e-09, Final residual = 1.051788821265862e-14, No Iterations 1
pEqnloop: 1
diagonal:  Solving for rho, Initial residual = 0, Final residual = 0, No Iterations 0
time step continuity errors : sum local = 2.051315925104903e-16, global = 1.767913112254995e-16, cumulative = -3.60497290120145e-15
DILUPBiCG:  Solving for k, Initial residual = 0.1411037708886337, Final residual = 2.058183635665882e-19, No Iterations 2
ExecutionTime = 79.93000000000001 s  ClockTime = 165 s

APIO_IO_STEP = 0.0001003742218017578
Courant Number mean: 3.072515049216365e-10 max: 0.0001548093385833504
deltaT = 8.916100448255996e-09
Time = 4.74966e-08

PIMPLE: iteration 1
diagonal:  Solving for rho, Initial residual = 0, Final residual = 0, No Iterations 0
DILUPBiCG:  Solving for Ux, Initial residual = 0.1823252198055339, Final residual = 1.745923409639661e-19, No Iterations 2
DILUPBiCG:  Solving for Uy, Initial residual = 0.182325219725705, Final residual = 2.438007456020633e-19, No Iterations 2
DILUPBiCG:  Solving for Uz, Initial residual = 0.05456992971919048, Final residual = 1.179860731475584e-19, No Iterations 2
DILUPBiCG:  Solving for e, Initial residual = 0.05453252318154176, Final residual = 4.021291978923828e-19, No Iterations 2
DILUPBiCG:  Solving for p, Initial residual = 0.05455995743963165, Final residual = 6.274913561502745e-10, No Iterations 1
pEqnloop: 0
diagonal:  Solving for rho, Initial residual = 0, Final residual = 0, No Iterations 0
time step continuity errors : sum local = 1.549750120873267e-16, global = -6.190466387182536e-17, cumulative = -3.666877565073275e-15
DILUPBiCG:  Solving for p, Initial residual = 4.854770703218343e-09, Final residual = 1.177237690049764e-14, No Iterations 1
pEqnloop: 1
diagonal:  Solving for rho, Initial residual = 0, Final residual = 0, No Iterations 0
time step continuity errors : sum local = 1.541329712485692e-16, global = -1.104105480425221e-16, cumulative = -3.777288113115798e-15
DILUPBiCG:  Solving for k, Initial residual = 0.1335467959429605, Final residual = 3.534002496285371e-19, No Iterations 2
ExecutionTime = 85.59999999999999 s  ClockTime = 177 s

APIO_IO_STEP = 0.0001096725463867188
Courant Number mean: 3.687178649886044e-10 max: 0.000185740947167246
deltaT = 1.069932053790719e-08
Time = 5.81959e-08

PIMPLE: iteration 1
diagonal:  Solving for rho, Initial residual = 0, Final residual = 0, No Iterations 0
DILUPBiCG:  Solving for Ux, Initial residual = 0.1786887648967766, Final residual = 3.168105174980256e-19, No Iterations 2
DILUPBiCG:  Solving for Uy, Initial residual = 0.1786887648330291, Final residual = 4.158107180519796e-19, No Iterations 2
DILUPBiCG:  Solving for Uz, Initial residual = 0.05325359145735199, Final residual = 2.016152422917514e-19, No Iterations 2
DILUPBiCG:  Solving for e, Initial residual = 0.05320880637668552, Final residual = 6.823703753921018e-19, No Iterations 2
DILUPBiCG:  Solving for p, Initial residual = 0.05324165671930686, Final residual = 8.837310319389345e-10, No Iterations 1
pEqnloop: 0
diagonal:  Solving for rho, Initial residual = 0, Final residual = 0, No Iterations 0
time step continuity errors : sum local = 1.732741695083342e-16, global = -7.182247710817731e-17, cumulative = -3.849110590223975e-15
DILUPBiCG:  Solving for p, Initial residual = 3.499339651331802e-09, Final residual = 1.004105915664666e-14, No Iterations 1
pEqnloop: 1
diagonal:  Solving for rho, Initial residual = 0, Final residual = 0, No Iterations 0
time step continuity errors : sum local = 1.515656865329991e-16, global = -1.213988620849648e-16, cumulative = -3.97050945230894e-15
DILUPBiCG:  Solving for k, Initial residual = 0.1275639042369852, Final residual = 6.31082250470314e-19, No Iterations 2
ExecutionTime = 92.2 s  ClockTime = 190 s

APIO_IO_STEP = 8.845329284667969e-05
Courant Number mean: 4.424853672513307e-10 max: 0.000222845848762023
deltaT = 1.283918464548863e-08
Time = 7.10351e-08

PIMPLE: iteration 1
diagonal:  Solving for rho, Initial residual = 0, Final residual = 0, No Iterations 0
DILUPBiCG:  Solving for Ux, Initial residual = 0.1757467247445151, Final residual = 5.935733266032737e-19, No Iterations 2
DILUPBiCG:  Solving for Uy, Initial residual = 0.1757467246987535, Final residual = 7.379871163227002e-19, No Iterations 2
DILUPBiCG:  Solving for Uz, Initial residual = 0.05219981725013961, Final residual = 3.513673498948019e-19, No Iterations 2
DILUPBiCG:  Solving for e, Initial residual = 0.05214614991934047, Final residual = 1.19357205659565e-18, No Iterations 2
DILUPBiCG:  Solving for p, Initial residual = 0.05218555288724267, Final residual = 1.250687940373789e-09, No Iterations 1
pEqnloop: 0
diagonal:  Solving for rho, Initial residual = 0, Final residual = 0, No Iterations 0
time step continuity errors : sum local = 4.821883610096048e-16, global = -3.878145397597389e-16, cumulative = -4.358323992068679e-15
DILUPBiCG:  Solving for p, Initial residual = 3.078790052698531e-09, Final residual = 1.051377959829873e-14, No Iterations 1
pEqnloop: 1
diagonal:  Solving for rho, Initial residual = 0, Final residual = 0, No Iterations 0
time step continuity errors : sum local = 4.292585745881815e-16, global = -4.292108490956066e-16, cumulative = -4.787534841164286e-15
DILUPBiCG:  Solving for k, Initial residual = 0.1227636793078019, Final residual = 1.169882928962162e-18, No Iterations 2
ExecutionTime = 97.84 s  ClockTime = 201 s

APIO_IO_STEP = 9.322166442871094e-05
Courant Number mean: 5.310182840481812e-10 max: 0.0002673531757326269
deltaT = 1.540702157458636e-08
Time = 8.64421e-08

PIMPLE: iteration 1
diagonal:  Solving for rho, Initial residual = 0, Final residual = 0, No Iterations 0
DILUPBiCG:  Solving for Ux, Initial residual = 0.1733503985105352, Final residual = 1.157506197220126e-18, No Iterations 2
DILUPBiCG:  Solving for Uy, Initial residual = 0.1733503984847822, Final residual = 1.366575604279833e-18, No Iterations 2
DILUPBiCG:  Solving for Uz, Initial residual = 0.05134793187281317, Final residual = 6.22138736177191e-19, No Iterations 2
DILUPBiCG:  Solving for e, Initial residual = 0.05128367462551356, Final residual = 2.151991496390432e-18, No Iterations 2
DILUPBiCG:  Solving for p, Initial residual = 0.05133091608355707, Final residual = 1.777214544152303e-09, No Iterations 1
pEqnloop: 0
diagonal:  Solving for rho, Initial residual = 0, Final residual = 0, No Iterations 0
time step continuity errors : sum local = 3.226823160970021e-16, global = 3.079182263649095e-16, cumulative = -4.479616614799377e-15
DILUPBiCG:  Solving for p, Initial residual = 3.582269757410103e-09, Final residual = 1.460705586506063e-14, No Iterations 1
pEqnloop: 1
diagonal:  Solving for rho, Initial residual = 0, Final residual = 0, No Iterations 0
time step continuity errors : sum local = 2.411308533465837e-16, global = 2.333914943283835e-16, cumulative = -4.246225120470993e-15
DILUPBiCG:  Solving for k, Initial residual = 0.1188696863724372, Final residual = 2.246548126929987e-18, No Iterations 2
ExecutionTime = 104.46 s  ClockTime = 215 s

APIO_IO_STEP = 0.169886589050293
Courant Number mean: 6.372759377274564e-10 max: 0.0003207356037221304
deltaT = 1.848842588950363e-08
Time = 1.04931e-07

PIMPLE: iteration 1
diagonal:  Solving for rho, Initial residual = 0, Final residual = 0, No Iterations 0
DILUPBiCG:  Solving for Ux, Initial residual = 0.1713861773177688, Final residual = 2.359081517903666e-18, No Iterations 2
DILUPBiCG:  Solving for Uy, Initial residual = 0.1713861773028163, Final residual = 2.678406957187627e-18, No Iterations 2
DILUPBiCG:  Solving for Uz, Initial residual = 0.05065305861549642, Final residual = 1.113360146379554e-18, No Iterations 2
DILUPBiCG:  Solving for e, Initial residual = 0.05057613446507514, Final residual = 3.998214193024919e-18, No Iterations 2
DILUPBiCG:  Solving for p, Initial residual = 0.05063278078608961, Final residual = 2.53414138096328e-09, No Iterations 1
pEqnloop: 0
diagonal:  Solving for rho, Initial residual = 0, Final residual = 0, No Iterations 0
time step continuity errors : sum local = 4.30677053077554e-16, global = 4.284957097509914e-16, cumulative = -3.817729410720002e-15
DILUPBiCG:  Solving for p, Initial residual = 4.06560271485725e-09, Final residual = 1.991401008654173e-14, No Iterations 1
pEqnloop: 1
diagonal:  Solving for rho, Initial residual = 0, Final residual = 0, No Iterations 0
time step continuity errors : sum local = 2.812249020481683e-16, global = 2.770580985373808e-16, cumulative = -3.540671312182621e-15
DILUPBiCG:  Solving for k, Initial residual = 0.1156816090467959, Final residual = 4.458092755225578e-18, No Iterations 2
ExecutionTime = 111.62 s  ClockTime = 229 s

APIO_IO_STEP = 9.298324584960938e-05
Courant Number mean: 7.64812972285099e-10 max: 0.0003847571616184505
deltaT = 2.218611106740435e-08
Time = 1.27117e-07

PIMPLE: iteration 1
diagonal:  Solving for rho, Initial residual = 0, Final residual = 0, No Iterations 0
DILUPBiCG:  Solving for Ux, Initial residual = 0.1697659845819436, Final residual = 4.929228492612042e-18, No Iterations 2
DILUPBiCG:  Solving for Uy, Initial residual = 0.1697659845704814, Final residual = 5.425886496054607e-18, No Iterations 2
DILUPBiCG:  Solving for Uz, Initial residual = 0.05008126763525754, Final residual = 1.999330515122997e-18, No Iterations 2
DILUPBiCG:  Solving for e, Initial residual = 0.04998919214826122, Final residual = 7.649277406302181e-18, No Iterations 2
DILUPBiCG:  Solving for p, Initial residual = 0.05005712920899495, Final residual = 3.62435786003591e-09, No Iterations 1
pEqnloop: 0
diagonal:  Solving for rho, Initial residual = 0, Final residual = 0, No Iterations 0
time step continuity errors : sum local = 4.913926161237132e-16, global = 1.677342432994517e-17, cumulative = -3.523897887852676e-15
DILUPBiCG:  Solving for p, Initial residual = 4.801676739407676e-09, Final residual = 2.840734520730991e-14, No Iterations 1
pEqnloop: 1
diagonal:  Solving for rho, Initial residual = 0, Final residual = 0, No Iterations 0
time step continuity errors : sum local = 2.489485741608255e-16, global = -2.300819205193417e-16, cumulative = -3.753979808372017e-15
DILUPBiCG:  Solving for k, Initial residual = 0.1130510224541137, Final residual = 9.117350200598377e-18, No Iterations 2
ExecutionTime = 118.73 s  ClockTime = 243 s

APIO_IO_STEP = 0.0001201629638671875
Courant Number mean: 9.179004421147132e-10 max: 0.0004615302830703828
deltaT = 2.662333328088522e-08
Time = 1.5374e-07

PIMPLE: iteration 1
diagonal:  Solving for rho, Initial residual = 0, Final residual = 0, No Iterations 0
DILUPBiCG:  Solving for Ux, Initial residual = 0.1684205942101807, Final residual = 1.168643307637216e-17, No Iterations 2
DILUPBiCG:  Solving for Uy, Initial residual = 0.1684205942016659, Final residual = 1.213993843425132e-17, No Iterations 2
DILUPBiCG:  Solving for Uz, Initial residual = 0.04960639577116405, Final residual = 3.564047137745916e-18, No Iterations 2
DILUPBiCG:  Solving for e, Initial residual = 0.04949620265197106, Final residual = 1.505359773000182e-17, No Iterations 2
DILUPBiCG:  Solving for p, Initial residual = 0.0495777037522915, Final residual = 5.197644436260587e-09, No Iterations 1
pEqnloop: 0
diagonal:  Solving for rho, Initial residual = 0, Final residual = 0, No Iterations 0
time step continuity errors : sum local = 1.016448573644375e-15, global = -1.633558919726575e-16, cumulative = -3.917335700344674e-15
DILUPBiCG:  Solving for p, Initial residual = 6.328940987269077e-09, Final residual = 4.536448339795283e-14, No Iterations 1
pEqnloop: 1
diagonal:  Solving for rho, Initial residual = 0, Final residual = 0, No Iterations 0
time step continuity errors : sum local = 5.877072762382235e-16, global = -5.847653020275962e-16, cumulative = -4.502101002372271e-15
DILUPBiCG:  Solving for k, Initial residual = 0.1108658386645924, Final residual = 1.916135349997259e-17, No Iterations 2
ExecutionTime = 124.9 s  ClockTime = 256 s

APIO_IO_STEP = 0.000110626220703125
Courant Number mean: 1.101672360570356e-09 max: 0.0005535838593398191
deltaT = 3.194799993706226e-08
Time = 1.85688e-07

PIMPLE: iteration 1
diagonal:  Solving for rho, Initial residual = 0, Final residual = 0, No Iterations 0
DILUPBiCG:  Solving for Ux, Initial residual = 0.1672948890627957, Final residual = 3.279640263826422e-17, No Iterations 2
DILUPBiCG:  Solving for Uy, Initial residual = 0.1672948890558509, Final residual = 3.351768727429337e-17, No Iterations 2
DILUPBiCG:  Solving for Uz, Initial residual = 0.04920787829631445, Final residual = 6.194281744221734e-18, No Iterations 2
DILUPBiCG:  Solving for e, Initial residual = 0.0490760586177037, Final residual = 3.04293397141056e-17, No Iterations 2
DILUPBiCG:  Solving for p, Initial residual = 0.04917384488797208, Final residual = 7.472570041701153e-09, No Iterations 1
pEqnloop: 0
diagonal:  Solving for rho, Initial residual = 0, Final residual = 0, No Iterations 0
time step continuity errors : sum local = 8.667316569620224e-16, global = 7.090474514188688e-16, cumulative = -3.793053550953402e-15
DILUPBiCG:  Solving for p, Initial residual = 7.977146013468028e-09, Final residual = 6.975226546866612e-14, No Iterations 1
pEqnloop: 1
diagonal:  Solving for rho, Initial residual = 0, Final residual = 0, No Iterations 0
time step continuity errors : sum local = 1.142343584502892e-16, global = -4.735214445741109e-17, cumulative = -3.840405695410813e-15
DILUPBiCG:  Solving for k, Initial residual = 0.1090398956993943, Final residual = 4.126195652625673e-17, No Iterations 2
ExecutionTime = 132.32 s  ClockTime = 271 s

APIO_IO_STEP = 0.08861994743347168
Courant Number mean: 1.322303588064694e-09 max: 0.0006639444024474684
deltaT = 3.833759992447472e-08
Time = 2.24026e-07

PIMPLE: iteration 1
diagonal:  Solving for rho, Initial residual = 0, Final residual = 0, No Iterations 0
DILUPBiCG:  Solving for Ux, Initial residual = 0.1663444150662024, Final residual = 1.112589508282683e-16, No Iterations 2
DILUPBiCG:  Solving for Uy, Initial residual = 0.1663444150609605, Final residual = 1.124016261460372e-16, No Iterations 2
DILUPBiCG:  Solving for Uz, Initial residual = 0.04886928998806392, Final residual = 1.013685225297998e-17, No Iterations 2
DILUPBiCG:  Solving for e, Initial residual = 0.04871167215206133, Final residual = 6.306759595147313e-17, No Iterations 2
DILUPBiCG:  Solving for p, Initial residual = 0.04882900379996429, Final residual = 1.076895389734285e-08, No Iterations 1
pEqnloop: 0
diagonal:  Solving for rho, Initial residual = 0, Final residual = 0, No Iterations 0
time step continuity errors : sum local = 1.422161410302334e-15, global = 1.390656854323361e-15, cumulative = -2.449748841087452e-15
DILUPBiCG:  Solving for p, Initial residual = 1.100717713170163e-08, Final residual = 1.17727283045869e-13, No Iterations 1
pEqnloop: 1
diagonal:  Solving for rho, Initial residual = 0, Final residual = 0, No Iterations 0
time step continuity errors : sum local = 1.36388046235916e-16, global = 8.517920281310012e-17, cumulative = -2.364569638274352e-15
DILUPBiCG:  Solving for k, Initial residual = 0.1075059387709345, Final residual = 9.078041508840456e-17, No Iterations 2
ExecutionTime = 139.47 s  ClockTime = 285 s

APIO_IO_STEP = 9.942054748535156e-05
Courant Number mean: 1.587226623916923e-09 max: 0.000796232869813707
deltaT = 4.600511990936966e-08
Time = 2.70031e-07

PIMPLE: iteration 1
diagonal:  Solving for rho, Initial residual = 0, Final residual = 0, No Iterations 0
DILUPBiCG:  Solving for Ux, Initial residual = 0.1655328481334649, Final residual = 1.933785967718334e-15, No Iterations 2
DILUPBiCG:  Solving for Uy, Initial residual = 0.1655328481284739, Final residual = 1.908699103473046e-15, No Iterations 2
DILUPBiCG:  Solving for Uz, Initial residual = 0.04857727214035, Final residual = 1.432503781168139e-17, No Iterations 2
DILUPBiCG:  Solving for e, Initial residual = 0.048388910513615, Final residual = 1.337541037151794e-16, No Iterations 2
DILUPBiCG:  Solving for p, Initial residual = 0.04852970960395209, Final residual = 1.555622581090452e-08, No Iterations 1
pEqnloop: 0
diagonal:  Solving for rho, Initial residual = 0, Final residual = 0, No Iterations 0
time step continuity errors : sum local = 2.499016921878572e-15, global = 1.971484593114803e-15, cumulative = -3.930850451595486e-16
DILUPBiCG:  Solving for p, Initial residual = 1.57643508623512e-08, Final residual = 2.069833784218413e-13, No Iterations 1
pEqnloop: 1
diagonal:  Solving for rho, Initial residual = 0, Final residual = 0, No Iterations 0
time step continuity errors : sum local = 2.663133777182475e-16, global = -2.591664970433231e-16, cumulative = -6.522515422028717e-16
DILUPBiCG:  Solving for k, Initial residual = 0.1062108298578737, Final residual = 2.035025848651611e-16, No Iterations 2
ExecutionTime = 146.28 s  ClockTime = 299 s

APIO_IO_STEP = 0.1300344467163086
Courant Number mean: 1.905397217527231e-09 max: 0.0009547802819188066
deltaT = 5.520614389124359e-08
Time = 3.25237e-07

PIMPLE: iteration 1
diagonal:  Solving for rho, Initial residual = 0, Final residual = 0, No Iterations 0
DILUPBiCG:  Solving for Ux, Initial residual = 0.1648300893799826, Final residual = 1.946964020652899e-16, No Iterations 2
DILUPBiCG:  Solving for Uy, Initial residual = 0.1648300893747383, Final residual = 1.904068097175827e-16, No Iterations 2
DILUPBiCG:  Solving for Uz, Initial residual = 0.04832074018419939, Final residual = 1.19655751194337e-17, No Iterations 2
DILUPBiCG:  Solving for e, Initial residual = 0.04809575551098338, Final residual = 2.896387269983324e-16, No Iterations 2
DILUPBiCG:  Solving for p, Initial residual = 0.04826475269081799, Final residual = 2.252579809216341e-08, No Iterations 1
pEqnloop: 0
diagonal:  Solving for rho, Initial residual = 0, Final residual = 0, No Iterations 0
time step continuity errors : sum local = 4.11017388672228e-15, global = 4.074182021360678e-15, cumulative = 3.421930479157806e-15
DILUPBiCG:  Solving for p, Initial residual = 2.283548241538635e-08, Final residual = 3.698596914123759e-13, No Iterations 1
pEqnloop: 1
diagonal:  Solving for rho, Initial residual = 0, Final residual = 0, No Iterations 0
time step continuity errors : sum local = 2.696483007097827e-16, global = 2.154430305423234e-16, cumulative = 3.63737350970013e-15
DILUPBiCG:  Solving for k, Initial residual = 0.1051120051475024, Final residual = 4.636499787154148e-16, No Iterations 2
ExecutionTime = 153.16 s  ClockTime = 313 s

APIO_IO_STEP = 0.0001032352447509766
Courant Number mean: 2.287622078256303e-09 max: 0.001144766058994377
deltaT = 6.62473726694923e-08
Time = 3.91484e-07

PIMPLE: iteration 1
diagonal:  Solving for rho, Initial residual = 0, Final residual = 0, No Iterations 0
DILUPBiCG:  Solving for Ux, Initial residual = 0.1642108139511981, Final residual = 2.547606504086756e-16, No Iterations 2
DILUPBiCG:  Solving for Uy, Initial residual = 0.1642108139467297, Final residual = 2.597996469859743e-16, No Iterations 2
DILUPBiCG:  Solving for Uz, Initial residual = 0.04809030569410024, Final residual = 2.967386113868737e-17, No Iterations 2
DILUPBiCG:  Solving for e, Initial residual = 0.04782179769754099, Final residual = 6.389866129759894e-16, No Iterations 2
DILUPBiCG:  Solving for p, Initial residual = 0.04802468057153013, Final residual = 3.270001192697217e-08, No Iterations 1
pEqnloop: 0
diagonal:  Solving for rho, Initial residual = 0, Final residual = 0, No Iterations 0
time step continuity errors : sum local = 7.006423773193288e-15, global = 6.989147848563365e-15, cumulative = 1.06265213582635e-14
DILUPBiCG:  Solving for p, Initial residual = 3.346621484834452e-08, Final residual = 6.719476949360538e-13, No Iterations 1
pEqnloop: 1
diagonal:  Solving for rho, Initial residual = 0, Final residual = 0, No Iterations 0
time step continuity errors : sum local = 2.246574012207312e-16, global = 2.117452179772297e-16, cumulative = 1.083826657624073e-14
DILUPBiCG:  Solving for k, Initial residual = 0.1041750099007089, Final residual = 1.071188771431119e-15, No Iterations 2
ExecutionTime = 162.54 s  ClockTime = 332 s

APIO_IO_STEP = 0.1633172035217285
Courant Number mean: 2.746966890378624e-09 max: 0.001372384141132097
deltaT = 7.949684720339076e-08
Time = 4.70981e-07

PIMPLE: iteration 1
diagonal:  Solving for rho, Initial residual = 0, Final residual = 0, No Iterations 0
DILUPBiCG:  Solving for Ux, Initial residual = 0.1636533488695187, Final residual = 1.425471513976012e-15, No Iterations 2
DILUPBiCG:  Solving for Uy, Initial residual = 0.1636533488649342, Final residual = 1.43322908797088e-15, No Iterations 2
DILUPBiCG:  Solving for Uz, Initial residual = 0.04787783833662152, Final residual = 2.017376110019389e-16, No Iterations 2
DILUPBiCG:  Solving for e, Initial residual = 0.04755770307105533, Final residual = 1.433038019613182e-15, No Iterations 2
DILUPBiCG:  Solving for p, Initial residual = 0.04780129783151138, Final residual = 4.759701288423746e-08, No Iterations 1
pEqnloop: 0
diagonal:  Solving for rho, Initial residual = 0, Final residual = 0, No Iterations 0
time step continuity errors : sum local = 1.204919186104997e-14, global = 1.201855342023632e-14, cumulative = 2.285681999647704e-14
DILUPBiCG:  Solving for p, Initial residual = 4.961171278187675e-08, Final residual = 4.740587762345108e-19, No Iterations 2
pEqnloop: 1
diagonal:  Solving for rho, Initial residual = 0, Final residual = 0, No Iterations 0
time step continuity errors : sum local = 1.455633394172931e-16, global = 1.214353611441714e-16, cumulative = 2.297825535762121e-14
DILUPBiCG:  Solving for k, Initial residual = 0.1033716719604952, Final residual = 2.504502191352987e-15, No Iterations 2
ExecutionTime = 171.89 s  ClockTime = 351 s

APIO_IO_STEP = 0.01342654228210449
Courant Number mean: 3.29927021082631e-09 max: 0.001645043660236682
deltaT = 9.53962166440689e-08
Time = 5.66377e-07

PIMPLE: iteration 1
diagonal:  Solving for rho, Initial residual = 0, Final residual = 0, No Iterations 0
DILUPBiCG:  Solving for Ux, Initial residual = 0.1631388014089347, Final residual = 5.196902500703554e-15, No Iterations 2
DILUPBiCG:  Solving for Uy, Initial residual = 0.1631388014051978, Final residual = 5.210383932526299e-15, No Iterations 2
DILUPBiCG:  Solving for Uz, Initial residual = 0.04767612719563424, Final residual = 8.279449057503895e-16, No Iterations 2
DILUPBiCG:  Solving for e, Initial residual = 0.04729490947456207, Final residual = 3.260125836912777e-15, No Iterations 2
DILUPBiCG:  Solving for p, Initial residual = 0.04758739307527948, Final residual = 6.948184189430119e-08, No Iterations 1
pEqnloop: 0
diagonal:  Solving for rho, Initial residual = 0, Final residual = 0, No Iterations 0
time step continuity errors : sum local = 2.132518083870019e-14, global = 2.13097711896267e-14, cumulative = 4.428802654724791e-14
DILUPBiCG:  Solving for p, Initial residual = 7.38612493182051e-08, Final residual = 1.543779217669948e-18, No Iterations 2
pEqnloop: 1
diagonal:  Solving for rho, Initial residual = 0, Final residual = 0, No Iterations 0
time step continuity errors : sum local = 5.064669558537315e-16, global = 4.983109836136724e-16, cumulative = 4.478633753086159e-14
DILUPBiCG:  Solving for k, Initial residual = 0.1026787464361264, Final residual = 5.91548719135222e-15, No Iterations 2
ExecutionTime = 178.7 s  ClockTime = 364 s

APIO_IO_STEP = 0.0001008510589599609
Courant Number mean: 3.963800060945652e-09 max: 0.001971613580785865
deltaT = 1.144754599728827e-07
Time = 6.80853e-07

PIMPLE: iteration 1
diagonal:  Solving for rho, Initial residual = 0, Final residual = 0, No Iterations 0
DILUPBiCG:  Solving for Ux, Initial residual = 0.1626503789704324, Final residual = 1.707697427404875e-14, No Iterations 2
DILUPBiCG:  Solving for Uy, Initial residual = 0.1626503789678254, Final residual = 1.710020623321466e-14, No Iterations 2
DILUPBiCG:  Solving for Uz, Initial residual = 0.04747862115123391, Final residual = 2.923679182030272e-15, No Iterations 2
DILUPBiCG:  Solving for e, Initial residual = 0.04702535176204822, Final residual = 7.508523888887466e-15, No Iterations 2
DILUPBiCG:  Solving for p, Initial residual = 0.04737651158275182, Final residual = 1.017510624225217e-07, No Iterations 1
pEqnloop: 0
diagonal:  Solving for rho, Initial residual = 0, Final residual = 0, No Iterations 0
time step continuity errors : sum local = 3.673466545496762e-14, global = 3.637562387408814e-14, cumulative = 8.116196140494972e-14
DILUPBiCG:  Solving for p, Initial residual = 1.108635380520915e-07, Final residual = 5.106510010886607e-18, No Iterations 2
pEqnloop: 1
diagonal:  Solving for rho, Initial residual = 0, Final residual = 0, No Iterations 0
time step continuity errors : sum local = 1.81073316732745e-16, global = -1.462355138529347e-16, cumulative = 8.101572589109678e-14
DILUPBiCG:  Solving for k, Initial residual = 0.102076888228517, Final residual = 1.409325030359786e-14, No Iterations 2
ExecutionTime = 186.3 s  ClockTime = 380 s

APIO_IO_STEP = 0.01795339584350586
Courant Number mean: 4.764107406333625e-09 max: 0.002362724964296523
deltaT = 1.373705519674592e-07
Time = 8.18223e-07

PIMPLE: iteration 1
diagonal:  Solving for rho, Initial residual = 0, Final residual = 0, No Iterations 0
DILUPBiCG:  Solving for Ux, Initial residual = 0.1621728690156834, Final residual = 5.378196685081417e-14, No Iterations 2
DILUPBiCG:  Solving for Uy, Initial residual = 0.162172869013551, Final residual = 5.382192264827666e-14, No Iterations 2
DILUPBiCG:  Solving for Uz, Initial residual = 0.04727922534874371, Final residual = 9.633211602476252e-15, No Iterations 2
DILUPBiCG:  Solving for e, Initial residual = 0.04674126748060084, Final residual = 1.747493048825999e-14, No Iterations 2
DILUPBiCG:  Solving for p, Initial residual = 0.04716279865327574, Final residual = 1.495254069584814e-07, No Iterations 1
pEqnloop: 0
diagonal:  Solving for rho, Initial residual = 0, Final residual = 0, No Iterations 0
time step continuity errors : sum local = 6.464068636867641e-14, global = 6.458493833210283e-14, cumulative = 1.456006642231996e-13
DILUPBiCG:  Solving for p, Initial residual = 1.674825173637787e-07, Final residual = 1.710817456055808e-17, No Iterations 2
pEqnloop: 1
diagonal:  Solving for rho, Initial residual = 0, Final residual = 0, No Iterations 0
time step continuity errors : sum local = 2.765333831018219e-16, global = 2.666139237169476e-16, cumulative = 1.458672781469166e-13
DILUPBiCG:  Solving for k, Initial residual = 0.1015499011543974, Final residual = 3.382333482615657e-14, No Iterations 2
ExecutionTime = 193.8 s  ClockTime = 395 s

APIO_IO_STEP = 0.05687689781188965
Courant Number mean: 5.729157945641917e-09 max: 0.002831151431704844
deltaT = 1.64844662360951e-07
Time = 9.83068e-07

PIMPLE: iteration 1
diagonal:  Solving for rho, Initial residual = 0, Final residual = 0, No Iterations 0
DILUPBiCG:  Solving for Ux, Initial residual = 0.1616922641974015, Final residual = 1.657786179747265e-13, No Iterations 2
DILUPBiCG:  Solving for Uy, Initial residual = 0.1616922641958257, Final residual = 1.65847302869931e-13, No Iterations 2
DILUPBiCG:  Solving for Uz, Initial residual = 0.04707219310813723, Final residual = 3.055775995530983e-14, No Iterations 2
DILUPBiCG:  Solving for e, Initial residual = 0.04643511540462287, Final residual = 4.102840942643807e-14, No Iterations 2
DILUPBiCG:  Solving for p, Initial residual = 0.04694093756884599, Final residual = 2.205678491388585e-07, No Iterations 1
pEqnloop: 0
diagonal:  Solving for rho, Initial residual = 0, Final residual = 0, No Iterations 0
time step continuity errors : sum local = 1.139376014534862e-13, global = 1.138120823977823e-13, cumulative = 2.596793605446988e-13
DILUPBiCG:  Solving for p, Initial residual = 2.543324273780647e-07, Final residual = 5.793917136742554e-17, No Iterations 2
pEqnloop: 1
diagonal:  Solving for rho, Initial residual = 0, Final residual = 0, No Iterations 0
time step continuity errors : sum local = 2.008368274833634e-16, global = 1.918812660575495e-16, cumulative = 2.598712418107564e-13
DILUPBiCG:  Solving for k, Initial residual = 0.1010841810072849, Final residual = 8.168173127139493e-14, No Iterations 2
ExecutionTime = 200.9 s  ClockTime = 409 s

APIO_IO_STEP = 8.249282836914062e-05
Courant Number mean: 6.89486666558091e-09 max: 0.003392299833640219
deltaT = 1.978135948331412e-07
Time = 1.18088e-06

PIMPLE: iteration 1
diagonal:  Solving for rho, Initial residual = 0, Final residual = 0, No Iterations 0
DILUPBiCG:  Solving for Ux, Initial residual = 0.1611955304450892, Final residual = 5.047643882843635e-13, No Iterations 2
DILUPBiCG:  Solving for Uy, Initial residual = 0.1611955304437718, Final residual = 5.048819493254426e-13, No Iterations 2
DILUPBiCG:  Solving for Uz, Initial residual = 0.04685203757428475, Final residual = 9.473197869872618e-14, No Iterations 2
DILUPBiCG:  Solving for e, Initial residual = 0.04609956093625014, Final residual = 9.702933285730145e-14, No Iterations 2
DILUPBiCG:  Solving for p, Initial residual = 0.04670615230261184, Final residual = 3.267122132207441e-07, No Iterations 1
pEqnloop: 0
diagonal:  Solving for rho, Initial residual = 0, Final residual = 0, No Iterations 0
time step continuity errors : sum local = 2.020635988503589e-13, global = 2.006589796813237e-13, cumulative = 4.605302214920801e-13
DILUPBiCG:  Solving for p, Initial residual = 3.88016349879548e-07, Final residual = 1.98310527618209e-16, No Iterations 2
pEqnloop: 1
diagonal:  Solving for rho, Initial residual = 0, Final residual = 0, No Iterations 0
time step continuity errors : sum local = 5.761539486829042e-16, global = -5.738499046329508e-16, cumulative = 4.599563715874471e-13
DILUPBiCG:  Solving for k, Initial residual = 0.100668261933662, Final residual = 1.983037178758731e-13, No Iterations 2
ExecutionTime = 207.58 s  ClockTime = 422 s

APIO_IO_STEP = 9.250640869140625e-05
Courant Number mean: 8.306228050751544e-09 max: 0.004064862143226224
deltaT = 2.373763137997695e-07
Time = 1.41826e-06

PIMPLE: iteration 1
diagonal:  Solving for rho, Initial residual = 0, Final residual = 0, No Iterations 0
DILUPBiCG:  Solving for Ux, Initial residual = 0.1606705339528671, Final residual = 1.86182266075024e-18, No Iterations 3
DILUPBiCG:  Solving for Uy, Initial residual = 0.1606705339520157, Final residual = 1.865765049257096e-18, No Iterations 3
DILUPBiCG:  Solving for Uz, Initial residual = 0.04661356795177132, Final residual = 2.893302342764919e-13, No Iterations 2
DILUPBiCG:  Solving for e, Initial residual = 0.04572760571201916, Final residual = 2.308268968474092e-13, No Iterations 2
DILUPBiCG:  Solving for p, Initial residual = 0.04645430730865072, Final residual = 4.860932727779665e-07, No Iterations 1
pEqnloop: 0
diagonal:  Solving for rho, Initial residual = 0, Final residual = 0, No Iterations 0
time step continuity errors : sum local = 3.585079167027595e-13, global = 3.576339889594831e-13, cumulative = 8.175903605469302e-13
DILUPBiCG:  Solving for p, Initial residual = 5.946557185170669e-07, Final residual = 6.866936463314337e-16, No Iterations 2
pEqnloop: 1
diagonal:  Solving for rho, Initial residual = 0, Final residual = 0, No Iterations 0
time step continuity errors : sum local = 1.271457554126233e-16, global = -1.988935068675501e-18, cumulative = 8.175883716118616e-13
DILUPBiCG:  Solving for k, Initial residual = 0.1002924923829639, Final residual = 4.836092352762761e-13, No Iterations 2
ExecutionTime = 214.51 s  ClockTime = 436 s

APIO_IO_STEP = 9.226799011230469e-05
Courant Number mean: 1.002034394577823e-08 max: 0.004871711166575935
deltaT = 2.848515765597234e-07
Time = 1.70311e-06

PIMPLE: iteration 1
diagonal:  Solving for rho, Initial residual = 0, Final residual = 0, No Iterations 0
DILUPBiCG:  Solving for Ux, Initial residual = 0.1601061568441536, Final residual = 9.557124141676049e-18, No Iterations 3
DILUPBiCG:  Solving for Uy, Initial residual = 0.160106156843364, Final residual = 9.572573699079441e-18, No Iterations 3
DILUPBiCG:  Solving for Uz, Initial residual = 0.04635203042937495, Final residual = 8.745886529732489e-13, No Iterations 2
DILUPBiCG:  Solving for e, Initial residual = 0.0453128599062461, Final residual = 5.517337357342186e-13, No Iterations 2
DILUPBiCG:  Solving for p, Initial residual = 0.04618212265714693, Final residual = 7.266322271555942e-07, No Iterations 1
pEqnloop: 0
diagonal:  Solving for rho, Initial residual = 0, Final residual = 0, No Iterations 0
time step continuity errors : sum local = 6.399509096124351e-13, global = 6.381054804958374e-13, cumulative = 1.455693852107699e-12
DILUPBiCG:  Solving for p, Initial residual = 9.147008685631915e-07, Final residual = 2.404897729149969e-15, No Iterations 2
pEqnloop: 1
diagonal:  Solving for rho, Initial residual = 0, Final residual = 0, No Iterations 0
time step continuity errors : sum local = 1.530959873905075e-16, global = 1.225342363019152e-16, cumulative = 1.455816386344001e-12
DILUPBiCG:  Solving for k, Initial residual = 0.09994885837382628, Final residual = 3.640641012852268e-18, No Iterations 3
ExecutionTime = 220.66 s  ClockTime = 449 s

APIO_IO_STEP = 9.822845458984375e-05
Courant Number mean: 1.211082482083108e-08 max: 0.00584117488148002
deltaT = 3.41821891871668e-07
Time = 2.04493e-06

PIMPLE: iteration 1
diagonal:  Solving for rho, Initial residual = 0, Final residual = 0, No Iterations 0
DILUPBiCG:  Solving for Ux, Initial residual = 0.1594926457961391, Final residual = 4.88221058814464e-17, No Iterations 3
DILUPBiCG:  Solving for Uy, Initial residual = 0.1594926457954695, Final residual = 4.888656871680487e-17, No Iterations 3
DILUPBiCG:  Solving for Uz, Initial residual = 0.04606335021720785, Final residual = 5.06495035628226e-18, No Iterations 3
DILUPBiCG:  Solving for e, Initial residual = 0.04485005529558742, Final residual = 4.932154396000062e-18, No Iterations 3
DILUPBiCG:  Solving for p, Initial residual = 0.04588749857325201, Final residual = 1.091474443793515e-06, No Iterations 1
pEqnloop: 0
diagonal:  Solving for rho, Initial residual = 0, Final residual = 0, No Iterations 0
time step continuity errors : sum local = 1.146903566950057e-12, global = 1.141951952377237e-12, cumulative = 2.597768338721238e-12
DILUPBiCG:  Solving for p, Initial residual = 1.41133472486966e-06, Final residual = 8.526944690265534e-15, No Iterations 2
pEqnloop: 1
diagonal:  Solving for rho, Initial residual = 0, Final residual = 0, No Iterations 0
time step continuity errors : sum local = 1.911424242653003e-16, global = -1.706838028687635e-16, cumulative = 2.59759765491837e-12
DILUPBiCG:  Solving for k, Initial residual = 0.09963076914176495, Final residual = 1.523013071022871e-17, No Iterations 3
ExecutionTime = 228.88 s  ClockTime = 465 s

APIO_IO_STEP = 0.01903605461120605
Courant Number mean: 1.467431532476507e-08 max: 0.007008909701044582
deltaT = 4.101862702460016e-07
Time = 2.45512e-06

PIMPLE: iteration 1
diagonal:  Solving for rho, Initial residual = 0, Final residual = 0, No Iterations 0
DILUPBiCG:  Solving for Ux, Initial residual = 0.1588222512774364, Final residual = 2.484006482117836e-16, No Iterations 3
DILUPBiCG:  Solving for Uy, Initial residual = 0.1588222512768422, Final residual = 2.486947878718803e-16, No Iterations 3
DILUPBiCG:  Solving for Uz, Initial residual = 0.04574467796982629, Final residual = 2.519406056627587e-17, No Iterations 3
DILUPBiCG:  Solving for e, Initial residual = 0.04433586813016599, Final residual = 1.98920265401197e-17, No Iterations 3
DILUPBiCG:  Solving for p, Initial residual = 0.0455699753788082, Final residual = 1.64742084254033e-06, No Iterations 1
pEqnloop: 0
diagonal:  Solving for rho, Initial residual = 0, Final residual = 0, No Iterations 0
time step continuity errors : sum local = 2.063386090792587e-12, global = 2.0510126679111e-12, cumulative = 4.64861032282947e-12
DILUPBiCG:  Solving for p, Initial residual = 2.182255563046038e-06, Final residual = 3.065433675891894e-14, No Iterations 2
pEqnloop: 1
diagonal:  Solving for rho, Initial residual = 0, Final residual = 0, No Iterations 0
time step continuity errors : sum local = 1.874813270665022e-16, global = -1.679787513986382e-16, cumulative = 4.648442344078071e-12
DILUPBiCG:  Solving for k, Initial residual = 0.09933287191782235, Final residual = 6.389144648493014e-17, No Iterations 3
ExecutionTime = 237.96 s  ClockTime = 483 s

APIO_IO_STEP = 9.441375732421875e-05
Courant Number mean: 1.784032560309399e-08 max: 0.008420730798805698
deltaT = 4.922235242952019e-07
Time = 2.94734e-06

PIMPLE: iteration 1
diagonal:  Solving for rho, Initial residual = 0, Final residual = 0, No Iterations 0
DILUPBiCG:  Solving for Ux, Initial residual = 0.1580902163634772, Final residual = 1.258743766951636e-15, No Iterations 3
DILUPBiCG:  Solving for Uy, Initial residual = 0.1580902163630689, Final residual = 1.260244467140995e-15, No Iterations 3
DILUPBiCG:  Solving for Uz, Initial residual = 0.04539524118686055, Final residual = 1.247660935780361e-16, No Iterations 3
DILUPBiCG:  Solving for e, Initial residual = 0.0437701194870796, Final residual = 8.022109972421235e-17, No Iterations 3
DILUPBiCG:  Solving for p, Initial residual = 0.0452313942614174, Final residual = 2.49783684300137e-06, No Iterations 1
pEqnloop: 0
diagonal:  Solving for rho, Initial residual = 0, Final residual = 0, No Iterations 0
time step continuity errors : sum local = 3.725258212817324e-12, global = 3.694000579073239e-12, cumulative = 8.342442923151311e-12
DILUPBiCG:  Solving for p, Initial residual = 3.378286915620521e-06, Final residual = 1.120926276309357e-13, No Iterations 2
pEqnloop: 1
diagonal:  Solving for rho, Initial residual = 0, Final residual = 0, No Iterations 0
time step continuity errors : sum local = 1.305289567776229e-16, global = 1.820999022584233e-17, cumulative = 8.342461133141537e-12
DILUPBiCG:  Solving for k, Initial residual = 0.09905077032629543, Final residual = 2.684417814407109e-16, No Iterations 3
ExecutionTime = 248.41 s  ClockTime = 504 s

APIO_IO_STEP = 0.06904959678649902
Courant Number mean: 2.178621068869581e-08 max: 0.01013697500785308
deltaT = 5.906682291542422e-07
Time = 3.53801e-06

PIMPLE: iteration 1
diagonal:  Solving for rho, Initial residual = 0, Final residual = 0, No Iterations 0
DILUPBiCG:  Solving for Ux, Initial residual = 0.1572961565806784, Final residual = 6.348735896649931e-15, No Iterations 3
DILUPBiCG:  Solving for Uy, Initial residual = 0.15729615658042, Final residual = 6.357249316167548e-15, No Iterations 3
DILUPBiCG:  Solving for Uz, Initial residual = 0.04501746294731501, Final residual = 6.147435869829232e-16, No Iterations 3
DILUPBiCG:  Solving for e, Initial residual = 0.04315749597606786, Final residual = 3.223638531083032e-16, No Iterations 3
DILUPBiCG:  Solving for p, Initial residual = 0.04488030597162842, Final residual = 3.800861120060056e-06, No Iterations 1
pEqnloop: 0
diagonal:  Solving for rho, Initial residual = 0, Final residual = 0, No Iterations 0
time step continuity errors : sum local = 6.743707392814472e-12, global = 6.662323606303186e-12, cumulative = 1.500478473944472e-11
DILUPBiCG:  Solving for p, Initial residual = 5.2300238238612e-06, Final residual = 4.202274971218402e-13, No Iterations 2
pEqnloop: 1
diagonal:  Solving for rho, Initial residual = 0, Final residual = 0, No Iterations 0
time step continuity errors : sum local = 2.755321115329018e-16, global = 2.640172028651015e-16, cumulative = 1.500504875664759e-11
DILUPBiCG:  Solving for k, Initial residual = 0.0987804958187742, Final residual = 1.127840638165819e-15, No Iterations 3
ExecutionTime = 255.29 s  ClockTime = 518 s

APIO_IO_STEP = 0.1129250526428223
Courant Number mean: 2.675996837698793e-08 max: 0.01223925477548992
deltaT = 7.088018749850907e-07
Time = 4.24681e-06

PIMPLE: iteration 1
diagonal:  Solving for rho, Initial residual = 0, Final residual = 0, No Iterations 0
DILUPBiCG:  Solving for Ux, Initial residual = 0.1564459277149432, Final residual = 3.182296269878203e-14, No Iterations 3
DILUPBiCG:  Solving for Uy, Initial residual = 0.156445927714819, Final residual = 3.187493322084328e-14, No Iterations 3
DILUPBiCG:  Solving for Uz, Initial residual = 0.04461867169297139, Final residual = 3.010354707344678e-15, No Iterations 3
DILUPBiCG:  Solving for e, Initial residual = 0.04251059453329166, Final residual = 1.284391152357754e-15, No Iterations 3
DILUPBiCG:  Solving for p, Initial residual = 0.04452820267940655, Final residual = 5.796105991400714e-06, No Iterations 1
pEqnloop: 0
diagonal:  Solving for rho, Initial residual = 0, Final residual = 0, No Iterations 0
time step continuity errors : sum local = 1.222251265962882e-11, global = 1.200828228583059e-11, cumulative = 2.701333104247818e-11
DILUPBiCG:  Solving for p, Initial residual = 8.08733867687249e-06, Final residual = 1.937489855646089e-16, No Iterations 3
pEqnloop: 1
diagonal:  Solving for rho, Initial residual = 0, Final residual = 0, No Iterations 0
time step continuity errors : sum local = 2.115754861264124e-16, global = -1.945814192113868e-16, cumulative = 2.701313646105897e-11
DILUPBiCG:  Solving for k, Initial residual = 0.09851750422997994, Final residual = 4.728611989859424e-15, No Iterations 3
ExecutionTime = 263.03 s  ClockTime = 534 s

APIO_IO_STEP = 0.1811408996582031
Courant Number mean: 3.311482390889316e-08 max: 0.01484090786029177
deltaT = 8.505622499821088e-07
Time = 5.09737e-06

PIMPLE: iteration 1
diagonal:  Solving for rho, Initial residual = 0, Final residual = 0, No Iterations 0
DILUPBiCG:  Solving for Ux, Initial residual = 0.1555535925712132, Final residual = 1.581346631493724e-13, No Iterations 3
DILUPBiCG:  Solving for Uy, Initial residual = 0.1555535925711728, Final residual = 1.584670624388095e-13, No Iterations 3
DILUPBiCG:  Solving for Uz, Initial residual = 0.04421327114782776, Final residual = 1.463249539042334e-14, No Iterations 3
DILUPBiCG:  Solving for e, Initial residual = 0.04185223913671171, Final residual = 5.050073095990064e-15, No Iterations 3
DILUPBiCG:  Solving for p, Initial residual = 0.04418267826172861, Final residual = 8.843784685747674e-06, No Iterations 1
pEqnloop: 0
diagonal:  Solving for rho, Initial residual = 0, Final residual = 0, No Iterations 0
time step continuity errors : sum local = 2.214681733014717e-11, global = 2.15842175507828e-11, cumulative = 4.859735401184177e-11
DILUPBiCG:  Solving for p, Initial residual = 1.247581176178958e-05, Final residual = 9.363902809588916e-16, No Iterations 3
pEqnloop: 1
diagonal:  Solving for rho, Initial residual = 0, Final residual = 0, No Iterations 0
time step continuity errors : sum local = 2.900449858541266e-16, global = 2.227498071555267e-16, cumulative = 4.859757676164892e-11
DILUPBiCG:  Solving for k, Initial residual = 0.09825486085733998, Final residual = 1.973009585675491e-14, No Iterations 3
ExecutionTime = 269.24 s  ClockTime = 546 s

APIO_IO_STEP = 9.1552734375e-05
Courant Number mean: 4.136192813639146e-08 max: 0.01810325951783837
deltaT = 1.02067469997853e-06
Time = 6.11805e-06

PIMPLE: iteration 1
diagonal:  Solving for rho, Initial residual = 0, Final residual = 0, No Iterations 0
DILUPBiCG:  Solving for Ux, Initial residual = 0.1546427278274802, Final residual = 7.765640011119881e-13, No Iterations 3
DILUPBiCG:  Solving for Uy, Initial residual = 0.1546427278281603, Final residual = 7.787710885558331e-13, No Iterations 3
DILUPBiCG:  Solving for Uz, Initial residual = 0.04382537634380126, Final residual = 7.052532357315333e-14, No Iterations 3
DILUPBiCG:  Solving for e, Initial residual = 0.04121618913363727, Final residual = 1.943583363194863e-14, No Iterations 3
DILUPBiCG:  Solving for p, Initial residual = 0.0438634238938624, Final residual = 1.345686109146304e-05, No Iterations 1
pEqnloop: 0
diagonal:  Solving for rho, Initial residual = 0, Final residual = 0, No Iterations 0
time step continuity errors : sum local = 3.99899972917825e-11, global = 3.851278441403773e-11, cumulative = 8.711036117568665e-11
DILUPBiCG:  Solving for p, Initial residual = 1.91597474483088e-05, Final residual = 4.538789227310287e-15, No Iterations 3
pEqnloop: 1
diagonal:  Solving for rho, Initial residual = 0, Final residual = 0, No Iterations 0
time step continuity errors : sum local = 1.836704412515099e-16, global = -3.938883620667496e-17, cumulative = 8.711032178685045e-11
DILUPBiCG:  Solving for k, Initial residual = 0.09798021290323908, Final residual = 8.161314969637813e-14, No Iterations 3
ExecutionTime = 276.13 s  ClockTime = 560 s

APIO_IO_STEP = 9.274482727050781e-05
Courant Number mean: 5.224846015793807e-08 max: 0.02226018112483556
deltaT = 1.224809639974236e-06
Time = 7.34286e-06

PIMPLE: iteration 1
diagonal:  Solving for rho, Initial residual = 0, Final residual = 0, No Iterations 0
DILUPBiCG:  Solving for Ux, Initial residual = 0.1537465907754651, Final residual = 3.683000039757876e-15, No Iterations 4
DILUPBiCG:  Solving for Uy, Initial residual = 0.1537465907785886, Final residual = 3.683056632470415e-15, No Iterations 4
DILUPBiCG:  Solving for Uz, Initial residual = 0.04349142275933645, Final residual = 3.368330596901382e-13, No Iterations 3
DILUPBiCG:  Solving for e, Initial residual = 0.04065069542552677, Final residual = 7.21402378824294e-14, No Iterations 3
DILUPBiCG:  Solving for p, Initial residual = 0.04359231819324739, Final residual = 2.031796319949438e-05, No Iterations 1
pEqnloop: 0
diagonal:  Solving for rho, Initial residual = 0, Final residual = 0, No Iterations 0
time step continuity errors : sum local = 7.16123967597452e-11, global = 6.776522465177081e-11, cumulative = 1.548755464386212e-10
DILUPBiCG:  Solving for p, Initial residual = 2.918243065140165e-05, Final residual = 2.206086544081327e-14, No Iterations 3
pEqnloop: 1
diagonal:  Solving for rho, Initial residual = 0, Final residual = 0, No Iterations 0
time step continuity errors : sum local = 1.685319924728067e-16, global = -8.077418176197069e-17, cumulative = 1.548754656644395e-10
DILUPBiCG:  Solving for k, Initial residual = 0.09767113728745032, Final residual = 3.327990029706288e-13, No Iterations 3
ExecutionTime = 285.02 s  ClockTime = 577 s

APIO_IO_STEP = 0.1003599166870117
Courant Number mean: 6.686956426428727e-08 max: 0.02765364928117841
deltaT = 1.469771567969084e-06
Time = 8.81263e-06

PIMPLE: iteration 1
diagonal:  Solving for rho, Initial residual = 0, Final residual = 0, No Iterations 0
DILUPBiCG:  Solving for Ux, Initial residual = 0.1529051041109354, Final residual = 2.951139124643073e-14, No Iterations 4
DILUPBiCG:  Solving for Uy, Initial residual = 0.152905104121867, Final residual = 2.951153245687482e-14, No Iterations 4
DILUPBiCG:  Solving for Uz, Initial residual = 0.04326189883677824, Final residual = 2.66790247047936e-15, No Iterations 4
DILUPBiCG:  Solving for e, Initial residual = 0.04021674144441508, Final residual = 2.512243760054695e-13, No Iterations 3
DILUPBiCG:  Solving for p, Initial residual = 0.04338969920729707, Final residual = 3.024698284451575e-05, No Iterations 1
pEqnloop: 0
diagonal:  Solving for rho, Initial residual = 0, Final residual = 0, No Iterations 0
time step continuity errors : sum local = 1.263982995678028e-10, global = 1.164052636274679e-10, cumulative = 2.712807292919074e-10
DILUPBiCG:  Solving for p, Initial residual = 4.374815351439551e-05, Final residual = 1.073139953546873e-13, No Iterations 3
pEqnloop: 1
diagonal:  Solving for rho, Initial residual = 0, Final residual = 0, No Iterations 0
time step continuity errors : sum local = 1.982375307195361e-16, global = -9.775811804966663e-17, cumulative = 2.712806315337893e-10
DILUPBiCG:  Solving for k, Initial residual = 0.0972890560605825, Final residual = 1.251008822043273e-16, No Iterations 4
ExecutionTime = 295.23 s  ClockTime = 597 s

APIO_IO_STEP = 0.0001010894775390625
Courant Number mean: 8.682139845861102e-08 max: 0.03478176451420977
deltaT = 1.7637258815629e-06
Time = 1.05764e-05

PIMPLE: iteration 1
diagonal:  Solving for rho, Initial residual = 0, Final residual = 0, No Iterations 0
DILUPBiCG:  Solving for Ux, Initial residual = 0.1521560673842425, Final residual = 2.249432921667355e-13, No Iterations 4
DILUPBiCG:  Solving for Uy, Initial residual = 0.1521560674211001, Final residual = 2.249346810120861e-13, No Iterations 4
DILUPBiCG:  Solving for Uz, Initial residual = 0.04320004014945888, Final residual = 1.988398034159981e-14, No Iterations 4
DILUPBiCG:  Solving for e, Initial residual = 0.03997958595474014, Final residual = 7.707448437500839e-13, No Iterations 3
DILUPBiCG:  Solving for p, Initial residual = 0.04326645536682911, Final residual = 4.394289783795447e-05, No Iterations 1
pEqnloop: 0
diagonal:  Solving for rho, Initial residual = 0, Final residual = 0, No Iterations 0
time step continuity errors : sum local = 2.176854662679882e-10, global = 1.92354904678676e-10, cumulative = 4.636355362124653e-10
DILUPBiCG:  Solving for p, Initial residual = 6.356487355502014e-05, Final residual = 5.39583664535071e-13, No Iterations 3
pEqnloop: 1
diagonal:  Solving for rho, Initial residual = 0, Final residual = 0, No Iterations 0
time step continuity errors : sum local = 1.989795912087113e-16, global = -3.868094527047275e-17, cumulative = 4.636354975315201e-10
DILUPBiCG:  Solving for k, Initial residual = 0.09677296494210609, Final residual = 8.214654821986374e-16, No Iterations 4
ExecutionTime = 305.13 s  ClockTime = 617 s

APIO_IO_STEP = 0.03832864761352539
Courant Number mean: 1.143994204193227e-07 max: 0.04435549242704663
deltaT = 2.11647105787548e-06
Time = 1.26928e-05

PIMPLE: iteration 1
diagonal:  Solving for rho, Initial residual = 0, Final residual = 0, No Iterations 0
DILUPBiCG:  Solving for Ux, Initial residual = 0.1515186471247999, Final residual = 5.441105623238583e-16, No Iterations 5
DILUPBiCG:  Solving for Uy, Initial residual = 0.1515186472458782, Final residual = 5.789458014339903e-16, No Iterations 5
DILUPBiCG:  Solving for Uz, Initial residual = 0.04337476509337413, Final residual = 1.384476847095693e-13, No Iterations 4
DILUPBiCG:  Solving for e, Initial residual = 0.0399889473418525, Final residual = 8.325859921160802e-16, No Iterations 4
DILUPBiCG:  Solving for p, Initial residual = 0.04321222775886814, Final residual = 6.193613289739162e-05, No Iterations 1
pEqnloop: 0
diagonal:  Solving for rho, Initial residual = 0, Final residual = 0, No Iterations 0
time step continuity errors : sum local = 3.636992892987865e-10, global = 2.998937103988933e-10, cumulative = 7.635292079304135e-10
DILUPBiCG:  Solving for p, Initial residual = 8.729732949867208e-05, Final residual = 1.712139223890004e-14, No Iterations 4
pEqnloop: 1
diagonal:  Solving for rho, Initial residual = 0, Final residual = 0, No Iterations 0
time step continuity errors : sum local = 1.633409635912945e-16, global = 2.200015197259198e-17, cumulative = 7.635292299305655e-10
DILUPBiCG:  Solving for k, Initial residual = 0.09603629807347891, Final residual = 5.401172628105901e-15, No Iterations 4
ExecutionTime = 313.17 s  ClockTime = 633 s

APIO_IO_STEP = 8.440017700195312e-05
Courant Number mean: 1.528471475741527e-07 max: 0.05734720907359542
deltaT = 2.539765269450577e-06
Time = 1.52326e-05

PIMPLE: iteration 1
diagonal:  Solving for rho, Initial residual = 0, Final residual = 0, No Iterations 0
DILUPBiCG:  Solving for Ux, Initial residual = 0.1509719140351211, Final residual = 9.575827611167204e-15, No Iterations 5
DILUPBiCG:  Solving for Uy, Initial residual = 0.1509719144052235, Final residual = 1.013216504505655e-14, No Iterations 5
DILUPBiCG:  Solving for Uz, Initial residual = 0.04384552355921589, Final residual = 8.939662284609127e-13, No Iterations 4
DILUPBiCG:  Solving for e, Initial residual = 0.04024557532098391, Final residual = 1.102008087118144e-16, No Iterations 4
DILUPBiCG:  Solving for p, Initial residual = 0.0431839114661083, Final residual = 8.518756782573907e-05, No Iterations 1
pEqnloop: 0
diagonal:  Solving for rho, Initial residual = 0, Final residual = 0, No Iterations 0
time step continuity errors : sum local = 5.929114283246862e-10, global = 4.338397665386596e-10, cumulative = 1.197368996469225e-09
DILUPBiCG:  Solving for p, Initial residual = 0.0001145447701713164, Final residual = 4.989589022507976e-14, No Iterations 4
pEqnloop: 1
diagonal:  Solving for rho, Initial residual = 0, Final residual = 0, No Iterations 0
time step continuity errors : sum local = 1.670140137130177e-16, global = 8.665910358795266e-17, cumulative = 1.197369083128329e-09
DILUPBiCG:  Solving for k, Initial residual = 0.09497371406965434, Final residual = 3.40089746996877e-14, No Iterations 4
ExecutionTime = 320.99 s  ClockTime = 648 s

APIO_IO_STEP = 0.01432180404663086
Courant Number mean: 2.066962153490195e-07 max: 0.07498893939020455
deltaT = 3.047718323340692e-06
Time = 1.82803e-05

PIMPLE: iteration 1
diagonal:  Solving for rho, Initial residual = 0, Final residual = 0, No Iterations 0
DILUPBiCG:  Solving for Ux, Initial residual = 0.1504435471248046, Final residual = 1.433718002783377e-13, No Iterations 5
DILUPBiCG:  Solving for Uy, Initial residual = 0.1504435481265643, Final residual = 1.499137894998136e-13, No Iterations 5
DILUPBiCG:  Solving for Uz, Initial residual = 0.04463944745181302, Final residual = 2.781145820100069e-14, No Iterations 5
DILUPBiCG:  Solving for e, Initial residual = 0.04066265674550917, Final residual = 9.458792363142823e-14, No Iterations 4
DILUPBiCG:  Solving for p, Initial residual = 0.04310597033777416, Final residual = 0.0001121839343229384, No Iterations 1
pEqnloop: 0
diagonal:  Solving for rho, Initial residual = 0, Final residual = 0, No Iterations 0
time step continuity errors : sum local = 9.251644496208289e-10, global = 5.899420672809811e-10, cumulative = 1.78731115040931e-09
DILUPBiCG:  Solving for p, Initial residual = 0.0001484175057538272, Final residual = 6.543838105855154e-13, No Iterations 4
pEqnloop: 1
diagonal:  Solving for rho, Initial residual = 0, Final residual = 0, No Iterations 0
time step continuity errors : sum local = 1.883210840932619e-16, global = 1.45189831024216e-17, cumulative = 1.787311164928293e-09
[...]
DILUPBiCG:  Solving for p, Initial residual = 0.0002521017639525916, Final residual = 7.091849292697496e-14, No Iterations 5
pEqnloop: 1
diagonal:  Solving for rho, Initial residual = 0, Final residual = 0, No Iterations 0
time step continuity errors : sum local = 2.015887856778123e-16, global = 5.164871689200435e-17, cumulative = 2.058481867719276e-09
DILUPBiCG:  Solving for k, Initial residual = 0.01789179939034495, Final residual = 3.148742816140813e-14, No Iterations 6
ExecutionTime = 644.28 s  ClockTime = 1289 s

APIO_IO_STEP = 0.05541062355041504
Courant Number mean: 2.388265185409844e-06 max: 0.202948600588568
deltaT = 3.394939130149075e-06
Time = 0.000100995

PIMPLE: iteration 1
diagonal:  Solving for rho, Initial residual = 0, Final residual = 0, No Iterations 0
DILUPBiCG:  Solving for Ux, Initial residual = 0.03304182295419969, Final residual = 8.293795562963316e-13, No Iterations 5
DILUPBiCG:  Solving for Uy, Initial residual = 0.03304181546784619, Final residual = 8.603518301138084e-13, No Iterations 5
DILUPBiCG:  Solving for Uz, Initial residual = 0.01350070553961421, Final residual = 9.812388311172188e-15, No Iterations 6
DILUPBiCG:  Solving for e, Initial residual = 0.01583601755861764, Final residual = 2.153948918697071e-14, No Iterations 6
DILUPBiCG:  Solving for p, Initial residual = 0.02103767867996341, Final residual = 5.919788980537506e-05, No Iterations 1
pEqnloop: 0
diagonal:  Solving for rho, Initial residual = 0, Final residual = 0, No Iterations 0
time step continuity errors : sum local = 2.733311269496153e-09, global = -4.522231129624849e-10, cumulative = 1.606258754756792e-09
DILUPBiCG:  Solving for p, Initial residual = 0.0002583599131972546, Final residual = 1.215650781878158e-13, No Iterations 5
pEqnloop: 1
diagonal:  Solving for rho, Initial residual = 0, Final residual = 0, No Iterations 0
time step continuity errors : sum local = 2.037262716216864e-16, global = -6.90014148271015e-17, cumulative = 1.606258685755377e-09
DILUPBiCG:  Solving for k, Initial residual = 0.01701741995842091, Final residual = 3.251990233446969e-14, No Iterations 6
ExecutionTime = 652.64 s  ClockTime = 1305 s

APIO_IO_STEP = 0.0001149177551269531
Terminating ...
End

APIO_IO_TIME = 21.07402760038773
Finalising parallel run
/*---------------------------------------------------------------------------*\
| =========                 |                                                 |
| \\      /  F ield         | OpenFOAM: The Open Source CFD Toolbox           |
|  \\    /   O peration     | Version:  v1912                                 |
|   \\  /    A nd           | Website:  www.openfoam.com                      |
|    \\/     M anipulation  |                                                 |
\*---------------------------------------------------------------------------*/
Build  : _f3950763fe-20191219 OPENFOAM=1912
Arch   : "LSB;label=32;scalar=64"
Exec   : rhoPimpleAPIO_METRICS -parallel
Date   : Nov 17 2020
Time   : 14:38:48
Host   : s24r2b69
PID    : 236291
I/O    : uncollated
Case   : /gpfs/scratch/pr1ejg00/pr1ejg20/openfoam/apio_32M/96
nProcs : 96
Hosts  :
(
    (s24r2b69 48)
    (s24r2b70 48)
)
Pstream initialized with:
    floatTransfer      : 0
    nProcsSimpleSum    : 0
    commsType          : nonBlocking
    polling iterations : 0
trapFpe: Floating point exception trapping enabled (FOAM_SIGFPE).
fileModificationChecking : Monitoring run-time modified files using timeStampMaster (fileModificationSkew 10)
allowSystemOperations : Allowing user-supplied system call operations

// * * * * * * * * * * * * * * * * * * * * * * * * * * * * * * * * * * * * * //
Create time

Create mesh for time = 0


PIMPLE: Operating solver in PISO mode

Reading thermophysical properties

Selecting thermodynamics package 
{
    type            hePsiThermo;
    mixture         pureMixture;
    transport       const;
    thermo          eConst;
    equationOfState perfectGas;
    specie          specie;
    energy          sensibleInternalEnergy;
}

Reading field U

Reading/calculating face flux field phi

--> FOAM Warning : 
    From function Foam::pressureControl::pressureControl(const Foam::GeometricField<double, Foam::fvPatchField, Foam::volMesh> &, const Foam::GeometricField<double, Foam::fvPatchField, Foam::volMesh> &, const Foam::dictionary &, bool)
    in file cfdTools/general/pressureControl/pressureControl.C at line 123
    Reading "/gpfs/scratch/pr1ejg00/pr1ejg20/openfoam/apio_32M/96/system/fvSolution.PIMPLE"
    'rhoMax' specified rather than 'pMax' or 'pMaxFactor'
    This is supported for backward-compatibility but 'pMax' or 'pMaxFactor' are more reliable.
--> FOAM Warning : 
    From function Foam::pressureControl::pressureControl(const Foam::GeometricField<double, Foam::fvPatchField, Foam::volMesh> &, const Foam::GeometricField<double, Foam::fvPatchField, Foam::volMesh> &, const Foam::dictionary &, bool)
    in file cfdTools/general/pressureControl/pressureControl.C at line 178
    Reading "/gpfs/scratch/pr1ejg00/pr1ejg20/openfoam/apio_32M/96/system/fvSolution.PIMPLE"
    'rhoMin' specified rather than 'pMin' or 'pMinFactor'
    This is supported for backward-compatibility but 'pMin' or 'pMinFactor' are more reliable.
pressureControl
    pMax 1726187.557059955
    pMin 4747.015781914877

Creating turbulence model

Selecting turbulence model type LES
Selecting LES turbulence model kEqn
Selecting LES delta type cubeRootVol
LES
{
    LESModel        kEqn;
    turbulence      on;
    printCoeffs     on;
    delta           cubeRootVol;
    cubeRootVolCoeffs
    {
        deltaCoeff      1;
    }
    PrandtlCoeffs
    {
        delta           cubeRootVol;
        cubeRootVolCoeffs
        {
            deltaCoeff      1;
        }
        smoothCoeffs
        {
            delta           cubeRootVol;
            cubeRootVolCoeffs
            {
                deltaCoeff      1;
            }
            maxDeltaRatio   1.1;
        }
        Cdelta          0.158;
    }
    vanDriestCoeffs
    {
        delta           cubeRootVol;
        cubeRootVolCoeffs
        {
            deltaCoeff      1;
        }
        smoothCoeffs
        {
            delta           cubeRootVol;
            cubeRootVolCoeffs
            {
                deltaCoeff      1;
            }
            maxDeltaRatio   1.1;
        }
        Aplus           26;
        Cdelta          0.158;
    }
    smoothCoeffs
    {
        delta           cubeRootVol;
        cubeRootVolCoeffs
        {
            deltaCoeff      1;
        }
        maxDeltaRatio   1.1;
    }
    Ce              1.048;
    Ck              0.094;
}

Creating field dpdt

Creating field kinetic energy K

No MRF models present

No finite volume options present
APIO_procNo = 0
APIO_masterNo = 0
writeThread 0 on CPU 48
APIO_procNo = 1
writeThread 1 on CPU 49
APIO_procNo = 2
writeThread 2 on CPU 50
APIO_procNo = 3
writeThread 3 on CPU 51
APIO_procNo = 4
writeThread 4 on CPU 52
APIO_procNo = 8
writeThread 8 on CPU 56
APIO_procNo = 16
writeThread 16 on CPU 64
APIO_procNo = 9
writeThread 9 on CPU 57
APIO_procNo = 32
APIO_procNo = 10
writeThread 10APIO_procNo = 11
APIO_procNo = 18
writeThread APIO_procNo = 19
writeThread 19 on CPU 67
 on CPU 58
writeThread 11 on CPU 59
18 on CPU 66
writeThread 32 on CPU 80
APIO_procNo = 12
APIO_procNo = 13
APIO_procNo = 34
writeThread 34 on CPU 82
writeThread 12 on CPU 60
APIO_procNo = 35
writeThread 35 on CPU 83
writeThread 13 on CPU 61
APIO_procNo = 14
writeThread 14 on CPU 62
APIO_procNo = 15
writeThread 15 on CPU 63
APIO_procNo = 20
writeThread 20 on CPU 68
APIO_procNo = 22
writeThread 22 on CPU 70
APIO_procNo = 21
writeThread 21 on CPU 69
APIO_procNo = 17
writeThread 17 on CPU 65
APIO_procNo = 33
writeThread 33 on CPU APIO_procNo = 40
81
APIO_procNo = 23
writeThread 40 on CPU 88
APIO_procNo = 42
writeThread 42 on CPU APIO_procNo = 6
writeThread 6 on CPU 54
90
APIO_procNo = 7
writeThread 7 on CPU 55
writeThread 23 on CPU 71
APIO_procNo = 36
writeThread 36 on CPU 84
APIO_procNo = 24
APIO_procNo = 38
writeThread 38 on CPU 86
APIO_procNo = 39
writeThread 39 on CPU 87
APIO_procNo = 5
writeThread 5 on CPU APIO_procNo = 37
writeThread 37 on CPU 85
53
writeThread 24 on CPU 72
APIO_procNo = 44
writeThread 44 on CPU 92
APIO_procNo = 46
APIO_procNo = 25
APIO_procNo = 68
APIO_procNo = 26
APIO_procNo = 58
writeThread 46 on CPU 94
APIO_procNo = 54
writeThread 25 on CPU 73
APIO_procNo = 70
writeThread 26 on CPU 74
APIO_procNo = 71
APIO_procNo = 43
APIO_procNo = 57
writeThread 43 on CPU 91
writeThread APIO_procNo = 27
writeThread 57 on CPU 57
writeThread 27 on CPU 75
54 on CPU 54
APIO_procNo = 41
writeThread 70 on CPU writeThread 41 on CPU 89
APIO_procNo = 69
APIO_procNo = 45
writeThread 69 on CPU 69
writeThread 45 on CPU 93
70
APIO_procNo = 28
writeThread 68 on CPU writeThread 28 on CPU 76
68
APIO_procNo = 30
APIO_procNo = 52
writeThread 30 on CPU 78
writeThread APIO_procNo = 31
APIO_procNo = 48
writeThread 31 on CPU 79writeThread 48 on CPU 48

APIO_procNo = 62
APIO_procNo = 29
52 on CPU 52
writeThread 29 on CPU 77
writeThread 62 on CPU 62
APIO_procNo = 47
APIO_procNo = 73
writeThread 47 on CPU 95
writeThread 73 on CPU 73
APIO_procNo = 72
writeThread 72 on CPU 72
APIO_procNo = 50
APIO_procNo = 76
APIO_procNo = 79
writeThread 50 on CPU 50
writeThread 76 on CPU APIO_procNo = 78
76
writeThread 79 on CPU 79
writeThread 78 on CPU 78
APIO_procNo = 49
writeThread 49 on CPU 49
APIO_procNo = 56
writeThread 56 on CPU 56
APIO_procNo = 53
writeThread 53 on CPU 53
APIO_procNo = 87
APIO_procNo = 80
APIO_procNo = 81
APIO_procNo = 82
APIO_procNo = 83
APIO_procNo = 84
APIO_procNo = 85
APIO_procNo = 88
APIO_procNo = 89
APIO_procNo = 91
APIO_procNo = 92
APIO_procNo = 95
APIO_procNo = 90
writeThread 87 on CPU 87
writeThread 80 on CPU writeThread 85 on CPU writeThread 88 on CPU 88
writeThread 89 on CPU 89
80
writeThread 81 on CPU 81
writeThread 82 on CPU 82
writeThread 84 on CPU 84
85
writeThread 92 on CPU 92
writeThread 95 on CPU 95
writeThread 83 on CPU 83
writeThread 90 on CPU 90
writeThread 91 on CPU 91
APIO_procNo = 86
APIO_procNo = 93
APIO_procNo = 94
writeThread 86 on CPU 86
writeThread 93 on CPU 93
writeThread 94 on CPU 94
APIO_procNo = 77
writeThread 77 on CPU 77
APIO_procNo = 65
writeThread 58 on CPU 58
writeThread 65 on CPU 65
APIO_procNo = 63
APIO_procNo = 67
writeThread 63 on CPU 63
writeThread 67 on CPU 67
APIO_procNo = 61
APIO_procNo = 66
APIO_procNo = 55
writeThread 71 on CPU APIO_procNo = 51
writeThread 51 on CPU writeThread 55 on CPU 55
APIO_procNo = 59
writeThread 61 on CPU 61
writeThread 66 on CPU 66
51
APIO_procNo = 60
writeThread 60 on CPU 60
APIO_procNo = 64
writeThread 64 on CPU 64
71
writeThread APIO_procNo = 74
59 on CPU writeThread 74 on CPU 74
59
APIO_procNo = 75
writeThread 75 on CPU 75
Courant Number mean: 4.134521852248256e-11 max: 2.085039370078741e-05

Starting time loop

Courant Number mean: 4.134521852248256e-11 max: 2.085039370078741e-05
deltaT = 1.2e-09
Time = 1.2e-09

PIMPLE: iteration 1
diagonal:  Solving for rho, Initial residual = 0, Final residual = 0, No Iterations 0
DILUPBiCG:  Solving for Ux, Initial residual = 1, Final residual = 1.867345971842485e-20, No Iterations 2
DILUPBiCG:  Solving for Uy, Initial residual = 1, Final residual = 2.934303887272859e-20, No Iterations 2
DILUPBiCG:  Solving for Uz, Initial residual = 1, Final residual = 3.534454601566138e-20, No Iterations 2
DILUPBiCG:  Solving for e, Initial residual = 0.999999013783808, Final residual = 1.421595318824863e-19, No Iterations 2
DILUPBiCG:  Solving for p, Initial residual = 0.9999996189081268, Final residual = 4.93165900928595e-10, No Iterations 1
pEqnloop: 0
diagonal:  Solving for rho, Initial residual = 0, Final residual = 0, No Iterations 0
time step continuity errors : sum local = 2.435104021756779e-16, global = -2.429143140517018e-16, cumulative = -2.429143140517018e-16
DILUPBiCG:  Solving for p, Initial residual = 1.177080390288981e-07, Final residual = 1.278862304342927e-16, No Iterations 1
pEqnloop: 1
diagonal:  Solving for rho, Initial residual = 0, Final residual = 0, No Iterations 0
time step continuity errors : sum local = 2.662399435747453e-16, global = -2.652123687073382e-16, cumulative = -5.081266827590401e-16
DILUPBiCG:  Solving for k, Initial residual = 0.9999999926663373, Final residual = 3.534911360518819e-20, No Iterations 2
ExecutionTime = 9.32 s  ClockTime = 19 s

APIO_IO_STEP = 0.002341985702514648
Courant Number mean: 4.961451094383406e-11 max: 2.50199092129387e-05
deltaT = 1.44e-09
Time = 2.64e-09

PIMPLE: iteration 1
diagonal:  Solving for rho, Initial residual = 0, Final residual = 0, No Iterations 0
DILUPBiCG:  Solving for Ux, Initial residual = 0.3749195238070021, Final residual = 4.241320876707078e-21, No Iterations 2
DILUPBiCG:  Solving for Uy, Initial residual = 0.3749195237884183, Final residual = 6.65694782490583e-21, No Iterations 2
DILUPBiCG:  Solving for Uz, Initial residual = 0.2307601757169242, Final residual = 4.951528681876404e-21, No Iterations 2
DILUPBiCG:  Solving for e, Initial residual = 0.2307512351839677, Final residual = 1.987882814381444e-20, No Iterations 2
DILUPBiCG:  Solving for p, Initial residual = 0.2307584339321821, Final residual = 6.862276181566993e-11, No Iterations 1
pEqnloop: 0
diagonal:  Solving for rho, Initial residual = 0, Final residual = 0, No Iterations 0
time step continuity errors : sum local = 5.55677430153491e-16, global = -5.555380745272827e-16, cumulative = -1.063664757286323e-15
DILUPBiCG:  Solving for p, Initial residual = 7.790277711869296e-08, Final residual = 9.330315295896188e-15, No Iterations 1
pEqnloop: 1
diagonal:  Solving for rho, Initial residual = 0, Final residual = 0, No Iterations 0
time step continuity errors : sum local = 4.797769078028011e-16, global = -4.797726767362696e-16, cumulative = -1.543437434022592e-15
DILUPBiCG:  Solving for k, Initial residual = 0.7612500408486308, Final residual = 1.636159545592025e-20, No Iterations 2
ExecutionTime = 18.62 s  ClockTime = 37 s

APIO_IO_STEP = 0.0001058578491210938
Courant Number mean: 5.953777282914288e-11 max: 3.002308059560313e-05
deltaT = 1.728e-09
Time = 4.368e-09

PIMPLE: iteration 1
diagonal:  Solving for rho, Initial residual = 0, Final residual = 0, No Iterations 0
DILUPBiCG:  Solving for Ux, Initial residual = 0.3231077138651248, Final residual = 5.337417874573511e-21, No Iterations 2
DILUPBiCG:  Solving for Uy, Initial residual = 0.3231077123422528, Final residual = 8.348233962285396e-21, No Iterations 2
DILUPBiCG:  Solving for Uz, Initial residual = 0.1406145040464589, Final residual = 4.432028631631181e-21, No Iterations 2
DILUPBiCG:  Solving for e, Initial residual = 0.1406066231582642, Final residual = 1.76963984883668e-20, No Iterations 2
DILUPBiCG:  Solving for p, Initial residual = 0.1406128493569906, Final residual = 6.022634524709991e-11, No Iterations 1
pEqnloop: 0
diagonal:  Solving for rho, Initial residual = 0, Final residual = 0, No Iterations 0
time step continuity errors : sum local = 6.635807375594004e-16, global = -6.633531624379802e-16, cumulative = -2.206790596460572e-15
DILUPBiCG:  Solving for p, Initial residual = 5.020187395215986e-08, Final residual = 3.836047622912398e-14, No Iterations 1
pEqnloop: 1
diagonal:  Solving for rho, Initial residual = 0, Final residual = 0, No Iterations 0
time step continuity errors : sum local = 6.443179398669525e-16, global = -6.443174358894987e-16, cumulative = -2.851108032350071e-15
DILUPBiCG:  Solving for k, Initial residual = 0.5223926727264944, Final residual = 1.652669287064593e-20, No Iterations 2
ExecutionTime = 30.21 s  ClockTime = 60 s

APIO_IO_STEP = 9.512901306152344e-05
Courant Number mean: 7.144584772671964e-11 max: 3.602653054273845e-05
deltaT = 2.0736e-09
Time = 6.4416e-09

PIMPLE: iteration 1
diagonal:  Solving for rho, Initial residual = 0, Final residual = 0, No Iterations 0
DILUPBiCG:  Solving for Ux, Initial residual = 0.2861774404223538, Final residual = 6.980489862155693e-21, No Iterations 2
DILUPBiCG:  Solving for Uy, Initial residual = 0.2861774393354272, Final residual = 1.085056091398173e-20, No Iterations 2
DILUPBiCG:  Solving for Uz, Initial residual = 0.1060780689588396, Final residual = 4.988380098064273e-21, No Iterations 2
DILUPBiCG:  Solving for e, Initial residual = 0.1060690436076755, Final residual = 1.972876784177366e-20, No Iterations 2
DILUPBiCG:  Solving for p, Initial residual = 0.1060760698502095, Final residual = 6.544499178977695e-11, No Iterations 1
pEqnloop: 0
diagonal:  Solving for rho, Initial residual = 0, Final residual = 0, No Iterations 0
time step continuity errors : sum local = 3.531790136337251e-16, global = -3.495438125394008e-16, cumulative = -3.200651844889472e-15
DILUPBiCG:  Solving for p, Initial residual = 3.573142696284044e-08, Final residual = 7.446106656382092e-13, No Iterations 1
pEqnloop: 1
diagonal:  Solving for rho, Initial residual = 0, Final residual = 0, No Iterations 0
time step continuity errors : sum local = 3.781873066608428e-16, global = -3.774708499685062e-16, cumulative = -3.578122694857978e-15
DILUPBiCG:  Solving for k, Initial residual = 0.3755564138161146, Final residual = 1.779002228514448e-20, No Iterations 2
ExecutionTime = 37.91 s  ClockTime = 75 s

APIO_IO_STEP = 9.965896606445312e-05
Courant Number mean: 8.573577152559639e-11 max: 4.323015923841611e-05
deltaT = 2.48832e-09
Time = 8.92992e-09

PIMPLE: iteration 1
diagonal:  Solving for rho, Initial residual = 0, Final residual = 0, No Iterations 0
DILUPBiCG:  Solving for Ux, Initial residual = 0.2580115686942526, Final residual = 9.404816889200655e-21, No Iterations 2
DILUPBiCG:  Solving for Uy, Initial residual = 0.2580115680223026, Final residual = 1.448728884674766e-20, No Iterations 2
DILUPBiCG:  Solving for Uz, Initial residual = 0.08805286406000599, Final residual = 6.2784798157786e-21, No Iterations 2
DILUPBiCG:  Solving for e, Initial residual = 0.08804227440312744, Final residual = 2.450172637486752e-20, No Iterations 2
DILUPBiCG:  Solving for p, Initial residual = 0.088050342006013, Final residual = 7.825907411287684e-11, No Iterations 1
pEqnloop: 0
diagonal:  Solving for rho, Initial residual = 0, Final residual = 0, No Iterations 0
time step continuity errors : sum local = 1.227441776501344e-16, global = -4.905193803637317e-17, cumulative = -3.627174632894351e-15
DILUPBiCG:  Solving for p, Initial residual = 2.001159126457993e-08, Final residual = 2.311908464101786e-14, No Iterations 1
pEqnloop: 1
diagonal:  Solving for rho, Initial residual = 0, Final residual = 0, No Iterations 0
time step continuity errors : sum local = 1.125314789061508e-16, global = -3.203793463103643e-17, cumulative = -3.659212567525388e-15
DILUPBiCG:  Solving for k, Initial residual = 0.2906877194078644, Final residual = 2.09982541667279e-20, No Iterations 2
ExecutionTime = 47.16 s  ClockTime = 94 s

APIO_IO_STEP = 0.0001070499420166016
Courant Number mean: 1.02884021222845e-10 max: 5.187377896431863e-05
deltaT = 2.985983999999999e-09
Time = 1.19159e-08

PIMPLE: iteration 1
diagonal:  Solving for rho, Initial residual = 0, Final residual = 0, No Iterations 0
DILUPBiCG:  Solving for Ux, Initial residual = 0.236902721517941, Final residual = 1.307203086289181e-20, No Iterations 2
DILUPBiCG:  Solving for Uy, Initial residual = 0.2369027211367382, Final residual = 1.989701845469248e-20, No Iterations 2
DILUPBiCG:  Solving for Uz, Initial residual = 0.07712864145542815, Final residual = 8.479175779589156e-21, No Iterations 2
DILUPBiCG:  Solving for e, Initial residual = 0.07711582304182871, Final residual = 3.254074940957213e-20, No Iterations 2
DILUPBiCG:  Solving for p, Initial residual = 0.07712531778941986, Final residual = 9.876442496651509e-11, No Iterations 1
pEqnloop: 0
diagonal:  Solving for rho, Initial residual = 0, Final residual = 0, No Iterations 0
time step continuity errors : sum local = 3.639021476126138e-16, global = 3.632031191641679e-16, cumulative = -3.29600944836122e-15
