/*---------------------------------------------------------------------------*\
| =========                 |                                                 |
| \\      /  F ield         | OpenFOAM: The Open Source CFD Toolbox           |
|  \\    /   O peration     | Version:  v1912                                 |
|   \\  /    A nd           | Website:  www.openfoam.com                      |
|    \\/     M anipulation  |                                                 |
\*---------------------------------------------------------------------------*/
Build  : _f3950763fe-20191219 OPENFOAM=1912
Arch   : "LSB;label=32;scalar=64"
Exec   : rhoPimpleAPIO_METRICS -parallel
Date   : Oct 27 2020
Time   : 13:37:42
Host   : r42c4t6n2
PID    : 108299
I/O    : uncollated
Case   : /lustre/cray/ws9/2/ws/hpcmcast-ashee2/HAWK/apio_64M/512
nProcs : 512
Hosts  :
(
    (r42c4t6n2 128)
    (r42c4t6n3 128)
    (r42c4t6n4 128)
    (r43c4t6n3 128)
)
Pstream initialized with:
    floatTransfer      : 0
    nProcsSimpleSum    : 0
    commsType          : nonBlocking
    polling iterations : 0
trapFpe: Floating point exception trapping enabled (FOAM_SIGFPE).
fileModificationChecking : Monitoring run-time modified files using timeStampMaster (fileModificationSkew 10)
allowSystemOperations : Allowing user-supplied system call operations

// * * * * * * * * * * * * * * * * * * * * * * * * * * * * * * * * * * * * * //
Create time

Create mesh for time = 0


PIMPLE: Operating solver in PISO mode

Reading thermophysical properties

Selecting thermodynamics package 
{
    type            hePsiThermo;
    mixture         pureMixture;
    transport       const;
    thermo          eConst;
    equationOfState perfectGas;
    specie          specie;
    energy          sensibleInternalEnergy;
}

Reading field U

Reading/calculating face flux field phi

--> FOAM Warning : 
    From function Foam::pressureControl::pressureControl(const volScalarField&, const volScalarField&, const Foam::dictionary&, bool)
    in file cfdTools/general/pressureControl/pressureControl.C at line 123
    Reading "/lustre/cray/ws9/2/ws/hpcmcast-ashee2/HAWK/apio_64M/512/system/fvSolution.PIMPLE"
    'rhoMax' specified rather than 'pMax' or 'pMaxFactor'
    This is supported for backward-compatibility but 'pMax' or 'pMaxFactor' are more reliable.
--> FOAM Warning : 
    From function Foam::pressureControl::pressureControl(const volScalarField&, const volScalarField&, const Foam::dictionary&, bool)
    in file cfdTools/general/pressureControl/pressureControl.C at line 178
    Reading "/lustre/cray/ws9/2/ws/hpcmcast-ashee2/HAWK/apio_64M/512/system/fvSolution.PIMPLE"
    'rhoMin' specified rather than 'pMin' or 'pMinFactor'
    This is supported for backward-compatibility but 'pMin' or 'pMinFactor' are more reliable.
pressureControl
    pMax 1726187.557059955
    pMin 4747.015781914877

Creating turbulence model

Selecting turbulence model type LES
Selecting LES turbulence model kEqn
Selecting LES delta type cubeRootVol
LES
{
    LESModel        kEqn;
    turbulence      on;
    printCoeffs     on;
    delta           cubeRootVol;
    cubeRootVolCoeffs
    {
        deltaCoeff      1;
    }
    PrandtlCoeffs
    {
        delta           cubeRootVol;
        cubeRootVolCoeffs
        {
            deltaCoeff      1;
        }
        smoothCoeffs
        {
            delta           cubeRootVol;
            cubeRootVolCoeffs
            {
                deltaCoeff      1;
            }
            maxDeltaRatio   1.1;
        }
        Cdelta          0.158;
    }
    vanDriestCoeffs
    {
        delta           cubeRootVol;
        cubeRootVolCoeffs
        {
            deltaCoeff      1;
        }
        smoothCoeffs
        {
            delta           cubeRootVol;
            cubeRootVolCoeffs
            {
                deltaCoeff      1;
            }
            maxDeltaRatio   1.1;
        }
        Aplus           26;
        Cdelta          0.158;
    }
    smoothCoeffs
    {
        delta           cubeRootVol;
        cubeRootVolCoeffs
        {
            deltaCoeff      1;
        }
        maxDeltaRatio   1.1;
    }
    Ce              1.048;
    Ck              0.094;
}

Creating field dpdt

Creating field kinetic energy K

No MRF models present

APIO_procNo = 35
APIO_procNo = 36
APIO_procNo = 37
APIO_procNo = 38
APIO_procNo = 39
APIO_procNo = 40
APIO_procNo = 41
APIO_procNo = 42
APIO_procNo = 43
APIO_procNo = 44
APIO_procNo = 45
APIO_procNo = 46
APIO_procNo = 47
APIO_procNo = 48
APIO_procNo = 49
APIO_procNo = 50
APIO_procNo = 51
APIO_procNo = 52
APIO_procNo = 53
APIO_procNo = 54
APIO_procNo = 55
APIO_procNo = 56
APIO_procNo = 57
APIO_procNo = 58
APIO_procNo = 59
APIO_procNo = 60
APIO_procNo = 61
APIO_procNo = 62
APIO_procNo = 63
APIO_procNo = 64
APIO_procNo = 65
APIO_procNo = 66
APIO_procNo = 67
APIO_procNo = 68
APIO_procNo = 69
APIO_procNo = 70
APIO_procNo = 71
APIO_procNo = 72
APIO_procNo = 73
APIO_procNo = 74
APIO_procNo = 75
APIO_procNo = 76
APIO_procNo = 77
APIO_procNo = 78
APIO_procNo = 79
APIO_procNo = 80
APIO_procNo = 81
APIO_procNo = 82
APIO_procNo = 83
APIO_procNo = 84
APIO_procNo = 85
APIO_procNo = 86
APIO_procNo = 87
APIO_procNo = 88
APIO_procNo = 89
APIO_procNo = 90
APIO_procNo = 91
APIO_procNo = 92
APIO_procNo = 93
APIO_procNo = 94
APIO_procNo = 95
APIO_procNo = 96
APIO_procNo = 97
APIO_procNo = 98
APIO_procNo = 99
APIO_procNo = 100
APIO_procNo = 101
APIO_procNo = 102
APIO_procNo = 103
APIO_procNo = 104
APIO_procNo = 105
APIO_procNo = 106
APIO_procNo = 107
APIO_procNo = 108
APIO_procNo = 109
APIO_procNo = 110
APIO_procNo = 111
APIO_procNo = 112
APIO_procNo = 113
APIO_procNo = 114
APIO_procNo = 115
APIO_procNo = 116
APIO_procNo = 117
APIO_procNo = 118
APIO_procNo = 119
APIO_procNo = 120
APIO_procNo = 121
APIO_procNo = 122
APIO_procNo = 123
APIO_procNo = 124
APIO_procNo = 125
APIO_procNo = 126
APIO_procNo = 127
No finite volume options present
APIO_procNo = 0
APIO_masterNo = 0
APIO_procNo = 1
writeThread 1 on CPU 129
APIO_procNo = 2
writeThread 2 on CPU 130
APIO_procNo = 3
writeThread 3 on CPU 131
APIO_procNo = 4
writeThread 4 on CPU 132
APIO_procNo = 5
writeThread 5 on CPU 133
APIO_procNo = 6
writeThread 6 on CPU 134
APIO_procNo = 7
writeThread 7 on CPU 135
APIO_procNo = 8
writeThread 8 on CPU 136
APIO_procNo = 9
writeThread 9 on CPU 137
APIO_procNo = 10
writeThread 10 on CPU 138
APIO_procNo = 11
writeThread 11 on CPU 139
APIO_procNo = 12
writeThread 12 on CPU 140
APIO_procNo = 13
writeThread 13 on CPU 141
APIO_procNo = 14
writeThread 14 on CPU 142
APIO_procNo = 15
writeThread 15 on CPU 143
APIO_procNo = 16
writeThread 16 on CPU 144
APIO_procNo = 17
writeThread 17 on CPU 145
APIO_procNo = 18
writeThread 18 on CPU 146
APIO_procNo = 19
writeThread 19 on CPU 147
APIO_procNo = 20
writeThread 20 on CPU 148
APIO_procNo = 21
writeThread 21 on CPU 149
APIO_procNo = 22
writeThread 22 on CPU 150
APIO_procNo = 23
writeThread 23 on CPU 151
APIO_procNo = 24
writeThread 24 on CPU 152
APIO_procNo = 25
writeThread 25 on CPU 153
APIO_procNo = 26
writeThread 26 on CPU 154
APIO_procNo = 27
writeThread 27 on CPU 155
APIO_procNo = 28
writeThread 28 on CPU 156
APIO_procNo = 29
writeThread 29 on CPU 157
APIO_procNo = 30
writeThread 30 on CPU 158
APIO_procNo = 31
writeThread 31 on CPU 159
APIO_procNo = 32
writeThread 32 on CPU 160
APIO_procNo = 33
writeThread 33 on CPU 161
APIO_procNo = 34
writeThread 34 on CPU 162
writeThread 127 on CPU 255
writeThread 35 on CPU 163
writeThread 36 on CPU 164
writeThread 37 on CPU 165
writeThread 38 on CPU 166
writeThread 39 on CPU 167
writeThread 40 on CPU 168
writeThread 41 on CPU 169
writeThread 42 on CPU 170
writeThread 43 on CPU 171
writeThread 44 on CPU 172
writeThread 45 on CPU 173
writeThread 46 on CPU 174
writeThread 47 on CPU 175
writeThread 48 on CPU 176
writeThread 49 on CPU 177
writeThread 50 on CPU 178
writeThread 51 on CPU 179
writeThread 52 on CPU 180
writeThread 53 on CPU 181
writeThread 54 on CPU 182
writeThread 55 on CPU 183
writeThread 56 on CPU 184
writeThread 57 on CPU 185
writeThread 58 on CPU 186
writeThread 59 on CPU 187
writeThread 60 on CPU 188
writeThread 61 on CPU 189
writeThread 62 on CPU 190
writeThread 63 on CPU 191
writeThread 64 on CPU 192
writeThread 65 on CPU 193
writeThread 66 on CPU 194
writeThread 67 on CPU 195
writeThread 68 on CPU 196
writeThread 69 on CPU 197
writeThread 70 on CPU 198
writeThread 71 on CPU 199
writeThread 72 on CPU 200
writeThread 73 on CPU 201
writeThread 74 on CPU 202
writeThread 75 on CPU 203
writeThread 76 on CPU 204
writeThread 77 on CPU 205
writeThread 78 on CPU 206
writeThread 79 on CPU 207
writeThread 80 on CPU 208
writeThread 81 on CPU 209
writeThread 82 on CPU 210
writeThread 83 on CPU 211
writeThread 84 on CPU 212
writeThread 85 on CPU 213
writeThread 86 on CPU 214
writeThread 87 on CPU 215
writeThread 88 on CPU 216
writeThread 89 on CPU 217
writeThread 90 on CPU 218
writeThread 91 on CPU 219
writeThread 92 on CPU 220
writeThread 93 on CPU 221
writeThread 94 on CPU 222
writeThread 95 on CPU 223
writeThread 96 on CPU 224
writeThread 97 on CPU 225
writeThread 98 on CPU 226
writeThread 99 on CPU 227
writeThread 100 on CPU 228
writeThread 101 on CPU 229
writeThread 102 on CPU 230
writeThread 103 on CPU 231
writeThread 104 on CPU 232
writeThread 105 on CPU 233
writeThread 106 on CPU 234
writeThread 107 on CPU 235
writeThread 108 on CPU 236
writeThread 109 on CPU 237
writeThread 110 on CPU 238
writeThread 111 on CPU 239
writeThread 113 on CPU 241
writeThread 114 on CPU 242
writeThread 115 on CPU 243
writeThread 116 on CPU 244
writeThread 117 on CPU 245
writeThread 118 on CPU 246
writeThread 119 on CPU 247
writeThread 120 on CPU 248
writeThread 121 on CPU 249
writeThread 122 on CPU 250
writeThread 123 on CPU 251
writeThread 125 on CPU 253
writeThread 126 on CPU 254
writeThread 0 on CPU 128
writeThread 112 on CPU 240
APIO_procNo = 256
APIO_procNo = 384
writeThread 384 on CPU 128
APIO_procNo = 128
APIO_procNo = 257
APIO_procNo = 385
writeThread 385 on CPU 129
APIO_procNo = 129
writeThread 129 on CPU 129
APIO_procNo = 258
APIO_procNo = 386
writeThread 386 on CPU 130
APIO_procNo = 130
writeThread 130 on CPU 130
APIO_procNo = 259
APIO_procNo = 387
writeThread 387 on CPU 131
APIO_procNo = 131
APIO_procNo = 260
APIO_procNo = 388
APIO_procNo = 132
writeThread 132 on CPU 132
APIO_procNo = 261
APIO_procNo = 389
APIO_procNo = 133
writeThread 133 on CPU 133
APIO_procNo = 262
APIO_procNo = 390
APIO_procNo = 134
writeThread 134 on CPU 134
APIO_procNo = 263
APIO_procNo = 391
APIO_procNo = 135
writeThread 135 on CPU 135
APIO_procNo = 264
APIO_procNo = 392
APIO_procNo = 136
writeThread 136 on CPU 136
APIO_procNo = 265
APIO_procNo = 393
APIO_procNo = 137
writeThread 137 on CPU 137
APIO_procNo = 266
APIO_procNo = 267
APIO_procNo = 394
APIO_procNo = 268
APIO_procNo = 395
APIO_procNo = 138
writeThread 138 on CPU 138
APIO_procNo = 269
APIO_procNo = 396
APIO_procNo = 139
writeThread 139 on CPU 139
APIO_procNo = 270
APIO_procNo = 397
APIO_procNo = 140
writeThread 140 on CPU 140
APIO_procNo = 271
APIO_procNo = 398
APIO_procNo = 141
writeThread 141 on CPU 141
APIO_procNo = 272
APIO_procNo = 399
APIO_procNo = 142
writeThread 142 on CPU 142
APIO_procNo = 273
APIO_procNo = 400
writeThread 400 on CPU 144
APIO_procNo = 143
writeThread 143 on CPU 143
APIO_procNo = 274
APIO_procNo = 401
writeThread 401 on CPU 145
APIO_procNo = 144
APIO_procNo = 275
APIO_procNo = 402
writeThread 402 on CPU 146
APIO_procNo = 145
APIO_procNo = 276
writeThread 276 on CPU 148
APIO_procNo = 403
writeThread 403 on CPU 147
APIO_procNo = 146
APIO_procNo = 277
writeThread 277 on CPU 149
APIO_procNo = 404
writeThread 404 on CPU 148
APIO_procNo = 147
APIO_procNo = 278
APIO_procNo = 405
writeThread 405 on CPU 149
APIO_procNo = 148
APIO_procNo = 279
APIO_procNo = 406
writeThread 406 on CPU 150
APIO_procNo = 149
APIO_procNo = 280
APIO_procNo = 407
writeThread 407 on CPU 151
APIO_procNo = 150
APIO_procNo = 281
writeThread 281 on CPU 153
APIO_procNo = 408
writeThread 408 on CPU 152
APIO_procNo = 151
APIO_procNo = 282
writeThread 282 on CPU 154
APIO_procNo = 409
writeThread 409 on CPU 153
APIO_procNo = 152
APIO_procNo = 283
APIO_procNo = 410
writeThread 410 on CPU 154
APIO_procNo = 153
APIO_procNo = 284
APIO_procNo = 411
writeThread 411 on CPU 155
APIO_procNo = 154
APIO_procNo = 285
APIO_procNo = 412
writeThread 412 on CPU 156
APIO_procNo = 155
APIO_procNo = 286
APIO_procNo = 413
writeThread 413 on CPU 157
APIO_procNo = 156
APIO_procNo = 287
APIO_procNo = 414
writeThread 414 on CPU 158
APIO_procNo = 157
APIO_procNo = 288
writeThread 288 on CPU 160
APIO_procNo = 415
writeThread 415 on CPU 159
APIO_procNo = 158
writeThread 124 on CPU 252
APIO_procNo = 289
writeThread 289 on CPU 161
APIO_procNo = 416
writeThread 416 on CPU 160
APIO_procNo = 159
APIO_procNo = 290
writeThread 290 on CPU 162
APIO_procNo = 417
writeThread 417 on CPU 161
APIO_procNo = 160
APIO_procNo = 291
writeThread 291 on CPU 163
APIO_procNo = 418
writeThread 418 on CPU 162
APIO_procNo = 161
APIO_procNo = 292
writeThread 292 on CPU 164
APIO_procNo = 419
writeThread 419 on CPU 163
APIO_procNo = 162
APIO_procNo = 293
writeThread 293 on CPU 165
APIO_procNo = 420
writeThread 420 on CPU 164
APIO_procNo = 163
APIO_procNo = 294
writeThread 294 on CPU 166
APIO_procNo = 421
writeThread 421 on CPU 165
APIO_procNo = 164
APIO_procNo = 295
writeThread 295 on CPU 167
APIO_procNo = 422
writeThread 422 on CPU 166
APIO_procNo = 165
APIO_procNo = 296
writeThread 296 on CPU 168
APIO_procNo = 423
writeThread 423 on CPU 167
APIO_procNo = 166
APIO_procNo = 297
writeThread 297 on CPU 169
APIO_procNo = 424
writeThread 424 on CPU 168
APIO_procNo = 167
APIO_procNo = 298
writeThread 298 on CPU 170
APIO_procNo = 425
writeThread 425 on CPU 169
APIO_procNo = 168
APIO_procNo = 299
writeThread 299 on CPU 171
APIO_procNo = 426
writeThread 426 on CPU 170
APIO_procNo = 169
APIO_procNo = 300
writeThread 300 on CPU 172
APIO_procNo = 427
writeThread 427 on CPU 171
APIO_procNo = 170
APIO_procNo = 301
APIO_procNo = 428
writeThread 428 on CPU 172
APIO_procNo = 171
APIO_procNo = 302
APIO_procNo = 429
writeThread 429 on CPU 173
APIO_procNo = 172
APIO_procNo = 303
writeThread 303 on CPU 175
APIO_procNo = 430
writeThread 430 on CPU 174
APIO_procNo = 173
APIO_procNo = 304
writeThread 304 on CPU 176
APIO_procNo = 431
writeThread 431 on CPU 175
APIO_procNo = 174
APIO_procNo = 305
writeThread 305 on CPU 177
APIO_procNo = 432
writeThread 432 on CPU 176
APIO_procNo = 175
APIO_procNo = 306
writeThread 306 on CPU 178
APIO_procNo = 433
writeThread 433 on CPU 177
APIO_procNo = 176
APIO_procNo = 307
writeThread 307 on CPU 179
APIO_procNo = 434
writeThread 434 on CPU 178
APIO_procNo = 177
APIO_procNo = 308
writeThread 308 on CPU 180
APIO_procNo = 435
writeThread 435 on CPU 179
APIO_procNo = 178
APIO_procNo = 309
writeThread 309 on CPU 181
APIO_procNo = 436
writeThread 436 on CPU 180
APIO_procNo = 179
APIO_procNo = 310
writeThread 310 on CPU 182
APIO_procNo = 437
writeThread 437 on CPU 181
APIO_procNo = 180
APIO_procNo = 311
writeThread 311 on CPU 183
APIO_procNo = 438
writeThread 438 on CPU 182
APIO_procNo = 181
APIO_procNo = 312
writeThread 312 on CPU 184
APIO_procNo = 439
writeThread 439 on CPU 183
APIO_procNo = 182
APIO_procNo = 313
writeThread 313 on CPU 185
APIO_procNo = 440
writeThread 440 on CPU 184
APIO_procNo = 183
APIO_procNo = 314
writeThread 314 on CPU 186
APIO_procNo = 441
writeThread 441 on CPU 185
APIO_procNo = 184
writeThread 184 on CPU 184
APIO_procNo = 315
writeThread 315 on CPU 187
APIO_procNo = 442
writeThread 442 on CPU 186
APIO_procNo = 185
writeThread 185 on CPU 185
APIO_procNo = 316
writeThread 316 on CPU 188
APIO_procNo = 443
writeThread 443 on CPU 187
APIO_procNo = 186
writeThread 186 on CPU 186
APIO_procNo = 317
writeThread 317 on CPU 189
APIO_procNo = 444
writeThread 444 on CPU 188
APIO_procNo = 187
writeThread 187 on CPU 187
APIO_procNo = 318
writeThread 318 on CPU 190
APIO_procNo = 445
writeThread 445 on CPU 189
APIO_procNo = 188
APIO_procNo = 319
writeThread 319 on CPU 191
APIO_procNo = 446
writeThread 446 on CPU 190
APIO_procNo = 189
APIO_procNo = 320
APIO_procNo = 447
writeThread 447 on CPU 191
APIO_procNo = 190
APIO_procNo = 321
APIO_procNo = 448
writeThread 448 on CPU 192
APIO_procNo = 191
APIO_procNo = 322
APIO_procNo = 449
writeThread 449 on CPU 193
APIO_procNo = 192
writeThread 192 on CPU 192
APIO_procNo = 323
APIO_procNo = 450
writeThread 450 on CPU 194
APIO_procNo = 193
writeThread 193 on CPU 193
APIO_procNo = 324
APIO_procNo = 451
writeThread 451 on CPU 195
APIO_procNo = 194
writeThread 194 on CPU 194
APIO_procNo = 325
APIO_procNo = 452
writeThread 452 on CPU 196
APIO_procNo = 195
writeThread 195 on CPU 195
APIO_procNo = 326
APIO_procNo = 453
writeThread 453 on CPU 197
APIO_procNo = 196
writeThread 196 on CPU 196
APIO_procNo = 327
APIO_procNo = 454
writeThread 454 on CPU 198
APIO_procNo = 197
writeThread 197 on CPU 197
APIO_procNo = 328
APIO_procNo = 455
writeThread 455 on CPU 199
APIO_procNo = 198
writeThread 198 on CPU 198
APIO_procNo = 329
APIO_procNo = 456
writeThread 456 on CPU 200
APIO_procNo = 199
writeThread 199 on CPU 199
APIO_procNo = 330
APIO_procNo = 457
writeThread 457 on CPU 201
APIO_procNo = 200
APIO_procNo = 331
APIO_procNo = 458
writeThread 458 on CPU 202
APIO_procNo = 201
writeThread 201 on CPU 201
APIO_procNo = 332
APIO_procNo = 459
writeThread 459 on CPU 203
APIO_procNo = 202
writeThread 202 on CPU 202
Courant Number mean: 2.066056443481734e-11 max: 2.085039370078742e-05
APIO_procNo = 333
APIO_procNo = 460
writeThread 460 on CPU 204
APIO_procNo = 203
writeThread 203 on CPU 203
APIO_procNo = 334
APIO_procNo = 461
writeThread 461 on CPU 205
APIO_procNo = 204
writeThread 204 on CPU 204
APIO_procNo = 335
APIO_procNo = 462
writeThread 462 on CPU 206
APIO_procNo = 205
writeThread 205 on CPU 205
APIO_procNo = 336
writeThread 336 on CPU 208
APIO_procNo = 463
writeThread 463 on CPU 207
APIO_procNo = 206
writeThread 206 on CPU 206
APIO_procNo = 337
writeThread 337 on CPU 209
APIO_procNo = 464
writeThread 464 on CPU 208
APIO_procNo = 207
writeThread 207 on CPU 207
APIO_procNo = 338
writeThread 338 on CPU 210
APIO_procNo = 465
writeThread 465 on CPU 209
APIO_procNo = 208
writeThread 208 on CPU 208
APIO_procNo = 339
writeThread 339 on CPU 211
APIO_procNo = 466
writeThread 466 on CPU 210
APIO_procNo = 209
writeThread 209 on CPU 209
APIO_procNo = 340
APIO_procNo = 467
writeThread 467 on CPU 211
APIO_procNo = 210
writeThread 210 on CPU 210
APIO_procNo = 341
APIO_procNo = 468
writeThread 468 on CPU 212
APIO_procNo = 211
writeThread 211 on CPU 211
APIO_procNo = 342
APIO_procNo = 469
writeThread 469 on CPU 213
APIO_procNo = 212
writeThread 212 on CPU 212
APIO_procNo = 343
APIO_procNo = 470
writeThread 470 on CPU 214
APIO_procNo = 213
writeThread 213 on CPU 213
APIO_procNo = 344
APIO_procNo = 471
writeThread 471 on CPU 215
APIO_procNo = 214
writeThread 214 on CPU 214
APIO_procNo = 345
APIO_procNo = 472
writeThread 472 on CPU 216
APIO_procNo = 215
writeThread 215 on CPU 215
APIO_procNo = 346
APIO_procNo = 473
writeThread 473 on CPU 217
APIO_procNo = 216
writeThread 216 on CPU 216
APIO_procNo = 347
APIO_procNo = 474
writeThread 474 on CPU 218
APIO_procNo = 217
writeThread 217 on CPU 217
APIO_procNo = 348
APIO_procNo = 475
writeThread 475 on CPU 219
APIO_procNo = 218
writeThread 218 on CPU 218
APIO_procNo = 349
APIO_procNo = 476
writeThread 476 on CPU 220
APIO_procNo = 219
writeThread 219 on CPU 219
APIO_procNo = 350
APIO_procNo = 477
writeThread 477 on CPU 221
APIO_procNo = 220
writeThread 220 on CPU 220
APIO_procNo = 351
APIO_procNo = 478
writeThread 478 on CPU 222
APIO_procNo = 221
writeThread 221 on CPU 221
APIO_procNo = 352
writeThread 352 on CPU 224
APIO_procNo = 479
writeThread 479 on CPU 223
APIO_procNo = 222
writeThread 222 on CPU 222
APIO_procNo = 353
writeThread 353 on CPU 225
APIO_procNo = 480
writeThread 480 on CPU 224
APIO_procNo = 223
writeThread 223 on CPU 223
APIO_procNo = 354
writeThread 354 on CPU 226
APIO_procNo = 481
writeThread 481 on CPU 225
APIO_procNo = 224
writeThread 224 on CPU 224
APIO_procNo = 355
writeThread 355 on CPU 227
APIO_procNo = 482
writeThread 482 on CPU 226
APIO_procNo = 225
writeThread 225 on CPU 225
APIO_procNo = 356
writeThread 356 on CPU 228
APIO_procNo = 483
writeThread 483 on CPU 227
APIO_procNo = 226
writeThread 226 on CPU 226
APIO_procNo = 357
writeThread 357 on CPU 229
APIO_procNo = 484
writeThread 484 on CPU 228
APIO_procNo = 227
writeThread 227 on CPU 227
APIO_procNo = 358
writeThread 358 on CPU 230
APIO_procNo = 485
writeThread 485 on CPU 229
APIO_procNo = 228
writeThread 228 on CPU 228
APIO_procNo = 359
writeThread 359 on CPU 231
APIO_procNo = 486
writeThread 486 on CPU 230
APIO_procNo = 229
writeThread 229 on CPU 229
APIO_procNo = 360
writeThread 360 on CPU 232
APIO_procNo = 487
writeThread 487 on CPU 231
APIO_procNo = 230
writeThread 230 on CPU 230
APIO_procNo = 361
writeThread 361 on CPU 233
APIO_procNo = 488
writeThread 488 on CPU 232
APIO_procNo = 231
writeThread 231 on CPU 231
APIO_procNo = 362
writeThread 362 on CPU 234
APIO_procNo = 489
writeThread 489 on CPU 233
APIO_procNo = 232
writeThread 232 on CPU 232
APIO_procNo = 363
writeThread 363 on CPU 235
APIO_procNo = 490
writeThread 490 on CPU 234
APIO_procNo = 233
writeThread 233 on CPU 233
APIO_procNo = 364
writeThread 364 on CPU 236
APIO_procNo = 491
writeThread 491 on CPU 235
APIO_procNo = 234
writeThread 234 on CPU 234
APIO_procNo = 365
writeThread 365 on CPU 237
APIO_procNo = 492
writeThread 492 on CPU 236
APIO_procNo = 235
writeThread 235 on CPU 235
APIO_procNo = 366
writeThread 366 on CPU 238
APIO_procNo = 493
writeThread 493 on CPU 237
APIO_procNo = 236
writeThread 236 on CPU 236
APIO_procNo = 367
writeThread 367 on CPU 239
APIO_procNo = 494
writeThread 494 on CPU 238
APIO_procNo = 237
writeThread 237 on CPU 237
APIO_procNo = 368
writeThread 368 on CPU 240
APIO_procNo = 495
writeThread 495 on CPU 239
APIO_procNo = 238
writeThread 238 on CPU 238
APIO_procNo = 369
writeThread 369 on CPU 241
APIO_procNo = 496
writeThread 496 on CPU 240
APIO_procNo = 239
writeThread 239 on CPU 239
APIO_procNo = 370
writeThread 370 on CPU 242
APIO_procNo = 497
writeThread 497 on CPU 241
APIO_procNo = 240
writeThread 240 on CPU 240
APIO_procNo = 371
writeThread 371 on CPU 243
APIO_procNo = 498
writeThread 498 on CPU 242
APIO_procNo = 241
writeThread 241 on CPU 241
APIO_procNo = 372
writeThread 372 on CPU 244
APIO_procNo = 499
writeThread 499 on CPU 243
APIO_procNo = 242
writeThread 242 on CPU 242
APIO_procNo = 373
writeThread 373 on CPU 245
APIO_procNo = 500
writeThread 500 on CPU 244
APIO_procNo = 243
writeThread 243 on CPU 243
APIO_procNo = 374
writeThread 374 on CPU 246
APIO_procNo = 501
writeThread 501 on CPU 245
APIO_procNo = 244
writeThread 244 on CPU 244
APIO_procNo = 375
writeThread 375 on CPU 247
APIO_procNo = 502
writeThread 502 on CPU 246
APIO_procNo = 245
writeThread 245 on CPU 245

Starting time loop

APIO_procNo = 376
writeThread 376 on CPU 248
APIO_procNo = 503
writeThread 503 on CPU 247
APIO_procNo = 246
writeThread 246 on CPU 246
APIO_procNo = 377
writeThread 377 on CPU 249
APIO_procNo = 504
writeThread 504 on CPU 248
APIO_procNo = 247
writeThread 247 on CPU 247
APIO_procNo = 378
writeThread 378 on CPU 250
APIO_procNo = 505
writeThread 505 on CPU 249
APIO_procNo = 248
writeThread 248 on CPU 248
APIO_procNo = 379
writeThread 379 on CPU 251
APIO_procNo = 506
writeThread 506 on CPU 250
APIO_procNo = 249
writeThread 249 on CPU 249
APIO_procNo = 380
writeThread 380 on CPU 252
APIO_procNo = 507
writeThread 507 on CPU 251
APIO_procNo = 250
writeThread 250 on CPU 250
APIO_procNo = 381
writeThread 381 on CPU 253
APIO_procNo = 508
APIO_procNo = 251
writeThread 251 on CPU 251
APIO_procNo = 382
APIO_procNo = 509
writeThread 509 on CPU 253
APIO_procNo = 252
APIO_procNo = 383
writeThread 383 on CPU 255
APIO_procNo = 510
writeThread 510 on CPU 254
APIO_procNo = 253
writeThread 253 on CPU 253
writeThread 256 on CPU 128
APIO_procNo = 511
writeThread 511 on CPU 255
APIO_procNo = 254
writeThread 254 on CPU 254
writeThread 257 on CPU 129
writeThread 388 on CPU 132
APIO_procNo = 255
writeThread 255 on CPU 255
writeThread 258 on CPU 130
writeThread 389 on CPU 133
writeThread 128 on CPU 128
writeThread 259 on CPU 131
writeThread 390 on CPU 134
writeThread 131 on CPU 131
writeThread 260 on CPU 132
writeThread 391 on CPU 135
writeThread 144 on CPU 144
writeThread 261 on CPU 133
writeThread 392 on CPU 136
writeThread 145 on CPU 145
writeThread 262 on CPU 134
writeThread 393 on CPU 137
writeThread 146 on CPU 146
writeThread 263 on CPU 135
writeThread 394 on CPU 138
writeThread 147 on CPU 147
writeThread 264 on CPU 136
writeThread 395 on CPU 139
writeThread 148 on CPU 148
writeThread 265 on CPU 137
writeThread 396 on CPU 140
writeThread 149 on CPU 149
writeThread 266 on CPU 138
writeThread 397 on CPU 141
writeThread 150 on CPU 150
writeThread 267 on CPU 139
writeThread 398 on CPU 142
writeThread 151 on CPU 151
writeThread 268 on CPU 140
writeThread 399 on CPU 143
writeThread 152 on CPU 152
writeThread 269 on CPU 141
writeThread 508 on CPU 252
writeThread 153 on CPU 153
writeThread 270 on CPU 142
writeThread 154 on CPU 154
writeThread 271 on CPU 143
writeThread 155 on CPU 155
writeThread 272 on CPU 144
writeThread 156 on CPU 156
writeThread 273 on CPU 145
writeThread 157 on CPU 157
writeThread 274 on CPU 146
writeThread 158 on CPU 158
writeThread 275 on CPU 147
writeThread 159 on CPU 159
writeThread 278 on CPU 150
writeThread 160 on CPU 160
writeThread 279 on CPU 151
writeThread 161 on CPU 161
writeThread 280 on CPU 152
writeThread 162 on CPU 162
writeThread 283 on CPU 155
writeThread 163 on CPU 163
writeThread 284 on CPU 156
writeThread 164 on CPU 164
writeThread 285 on CPU 157
writeThread 165 on CPU 165
writeThread 286 on CPU 158
writeThread 166 on CPU 166
writeThread 287 on CPU 159
writeThread 167 on CPU 167
writeThread 301 on CPU 173
writeThread 168 on CPU 168
writeThread 302 on CPU 174
writeThread 169 on CPU 169
writeThread 320 on CPU 192
writeThread 170 on CPU 170
writeThread 321 on CPU 193
writeThread 171 on CPU 171
writeThread 322 on CPU 194
writeThread 172 on CPU 172
writeThread 323 on CPU 195
writeThread 173 on CPU 173
writeThread 324 on CPU 196
writeThread 174 on CPU 174
writeThread 325 on CPU 197
writeThread 175 on CPU 175
writeThread 326 on CPU 198
writeThread 176 on CPU 176
writeThread 327 on CPU 199
writeThread 177 on CPU 177
writeThread 328 on CPU 200
writeThread 178 on CPU 178
writeThread 329 on CPU 201
writeThread 179 on CPU 179
writeThread 330 on CPU 202
writeThread 180 on CPU 180
writeThread 331 on CPU 203
writeThread 181 on CPU 181
writeThread 332 on CPU 204
writeThread 182 on CPU 182
writeThread 333 on CPU 205
writeThread 183 on CPU 183
writeThread 334 on CPU 206
writeThread 188 on CPU 188
writeThread 335 on CPU 207
writeThread 189 on CPU 189
writeThread 340 on CPU 212
writeThread 190 on CPU 190
writeThread 341 on CPU 213
writeThread 191 on CPU 191
writeThread 342 on CPU 214
writeThread 200 on CPU 200
writeThread 343 on CPU 215
writeThread 252 on CPU 252
writeThread 344 on CPU 216
writeThread 345 on CPU 217
writeThread 346 on CPU 218
writeThread 347 on CPU 219
writeThread 348 on CPU 220
writeThread 349 on CPU 221
writeThread 350 on CPU 222
writeThread 351 on CPU 223
writeThread 382 on CPU 254
Courant Number mean: 2.066056443481734e-11 max: 2.085039370078742e-05
deltaT = 1.2e-09
Time = 1.2e-09

PIMPLE: iteration 1
diagonal:  Solving for rho, Initial residual = 0, Final residual = 0, No Iterations 0
DILUPBiCG:  Solving for Ux, Initial residual = 1, Final residual = 1.533815674705183e-20, No Iterations 2
DILUPBiCG:  Solving for Uy, Initial residual = 1, Final residual = 2.489753499570185e-20, No Iterations 2
DILUPBiCG:  Solving for Uz, Initial residual = 1, Final residual = 3.147611893478011e-20, No Iterations 2
DILUPBiCG:  Solving for e, Initial residual = 0.9999980137434602, Final residual = 1.265998819750335e-19, No Iterations 2
DILUPBiCG:  Solving for p, Initial residual = 0.9999992506040948, Final residual = 9.862901837212117e-10, No Iterations 1
pEqnloop: 0
diagonal:  Solving for rho, Initial residual = 0, Final residual = 0, No Iterations 0
time step continuity errors : sum local = 2.468274472665499e-16, global = -2.464068654257245e-16, cumulative = -2.464068654257245e-16
DILUPBiCG:  Solving for p, Initial residual = 2.345238258607319e-07, Final residual = 3.991011968699457e-16, No Iterations 1
pEqnloop: 1
diagonal:  Solving for rho, Initial residual = 0, Final residual = 0, No Iterations 0
time step continuity errors : sum local = 2.671916942447919e-16, global = -2.663716852832972e-16, cumulative = -5.127785507090218e-16
DILUPBiCG:  Solving for k, Initial residual = 0.9999999900961775, Final residual = 3.148793791106859e-20, No Iterations 2
ExecutionTime = 4.96 s  ClockTime = 9 s

Courant Number mean: 2.479280160775187e-11 max: 2.501990921293872e-05
deltaT = 1.44e-09
Time = 2.64e-09

PIMPLE: iteration 1
diagonal:  Solving for rho, Initial residual = 0, Final residual = 0, No Iterations 0
DILUPBiCG:  Solving for Ux, Initial residual = 0.3749195243097161, Final residual = 3.487817629348647e-21, No Iterations 2
DILUPBiCG:  Solving for Uy, Initial residual = 0.3749195242866556, Final residual = 5.669107342922497e-21, No Iterations 2
DILUPBiCG:  Solving for Uz, Initial residual = 0.2307598235409012, Final residual = 4.417186711561533e-21, No Iterations 2
DILUPBiCG:  Solving for e, Initial residual = 0.2307525412135878, Final residual = 1.772299709584928e-20, No Iterations 2
DILUPBiCG:  Solving for p, Initial residual = 0.2307596382505658, Final residual = 1.372278773114269e-10, No Iterations 1
pEqnloop: 0
diagonal:  Solving for rho, Initial residual = 0, Final residual = 0, No Iterations 0
time step continuity errors : sum local = 5.485495952695084e-16, global = -5.484519684615779e-16, cumulative = -1.0612305191706e-15
DILUPBiCG:  Solving for p, Initial residual = 1.588226288512888e-07, Final residual = 1.952353373010185e-14, No Iterations 1
pEqnloop: 1
diagonal:  Solving for rho, Initial residual = 0, Final residual = 0, No Iterations 0
time step continuity errors : sum local = 4.812033152446304e-16, global = -4.811987293792149e-16, cumulative = -1.542429248549814e-15
DILUPBiCG:  Solving for k, Initial residual = 0.7612498603105426, Final residual = 1.459176250101386e-20, No Iterations 2
ExecutionTime = 9.33 s  ClockTime = 16 s

Courant Number mean: 2.975154167278589e-11 max: 3.002308059560314e-05
deltaT = 1.728e-09
Time = 4.368e-09

PIMPLE: iteration 1
diagonal:  Solving for rho, Initial residual = 0, Final residual = 0, No Iterations 0
DILUPBiCG:  Solving for Ux, Initial residual = 0.3231076558679029, Final residual = 4.403453296623639e-21, No Iterations 2
DILUPBiCG:  Solving for Uy, Initial residual = 0.3231076566920854, Final residual = 7.185890492836088e-21, No Iterations 2
DILUPBiCG:  Solving for Uz, Initial residual = 0.1406142643037546, Final residual = 3.973041582383393e-21, No Iterations 2
DILUPBiCG:  Solving for e, Initial residual = 0.1406074988978159, Final residual = 1.58289134319492e-20, No Iterations 2
DILUPBiCG:  Solving for p, Initial residual = 0.1406135178144109, Final residual = 1.204224249903629e-10, No Iterations 1
pEqnloop: 0
diagonal:  Solving for rho, Initial residual = 0, Final residual = 0, No Iterations 0
time step continuity errors : sum local = 6.614419935956086e-16, global = -6.613002651700913e-16, cumulative = -2.203729513719906e-15
DILUPBiCG:  Solving for p, Initial residual = 1.008237377721138e-07, Final residual = 9.744520925272569e-14, No Iterations 1
pEqnloop: 1
diagonal:  Solving for rho, Initial residual = 0, Final residual = 0, No Iterations 0
time step continuity errors : sum local = 6.449407759806525e-16, global = -6.449405944202082e-16, cumulative = -2.848670108140114e-15
DILUPBiCG:  Solving for k, Initial residual = 0.5223924252550552, Final residual = 1.480487213032779e-20, No Iterations 2
ExecutionTime = 14.3 s  ClockTime = 24 s

Courant Number mean: 3.570211002163484e-11 max: 3.602653054273846e-05
deltaT = 2.0736e-09
Time = 6.4416e-09

PIMPLE: iteration 1
diagonal:  Solving for rho, Initial residual = 0, Final residual = 0, No Iterations 0
DILUPBiCG:  Solving for Ux, Initial residual = 0.2861774280958732, Final residual = 5.791582349382892e-21, No Iterations 2
DILUPBiCG:  Solving for Uy, Initial residual = 0.2861774286067981, Final residual = 9.517106340153999e-21, No Iterations 2
DILUPBiCG:  Solving for Uz, Initial residual = 0.1060778808375832, Final residual = 4.509744874316755e-21, No Iterations 2
DILUPBiCG:  Solving for e, Initial residual = 0.1060696106047687, Final residual = 1.774822296425989e-20, No Iterations 2
DILUPBiCG:  Solving for p, Initial residual = 0.1060765666903587, Final residual = 1.308312377526708e-10, No Iterations 1
pEqnloop: 0
diagonal:  Solving for rho, Initial residual = 0, Final residual = 0, No Iterations 0
time step continuity errors : sum local = 3.550956972559471e-16, global = -3.523016928631691e-16, cumulative = -3.200971801003283e-15
DILUPBiCG:  Solving for p, Initial residual = 7.236371330333481e-08, Final residual = 7.262203446396059e-21, No Iterations 2
pEqnloop: 1
diagonal:  Solving for rho, Initial residual = 0, Final residual = 0, No Iterations 0
time step continuity errors : sum local = 3.843064680912151e-16, global = -3.837810204519508e-16, cumulative = -3.584752821455234e-15
DILUPBiCG:  Solving for k, Initial residual = 0.3755561811821533, Final residual = 1.606061533791764e-20, No Iterations 2
ExecutionTime = 18.5 s  ClockTime = 31 s

Courant Number mean: 4.284290893300109e-11 max: 4.323015923841612e-05
deltaT = 2.48832e-09
Time = 8.92992e-09

PIMPLE: iteration 1
diagonal:  Solving for rho, Initial residual = 0, Final residual = 0, No Iterations 0
DILUPBiCG:  Solving for Ux, Initial residual = 0.2580115438135032, Final residual = 7.864622598536975e-21, No Iterations 2
DILUPBiCG:  Solving for Uy, Initial residual = 0.2580115443893235, Final residual = 1.305044678355911e-20, No Iterations 2
DILUPBiCG:  Solving for Uz, Initial residual = 0.08805270476323145, Final residual = 5.743978420245791e-21, No Iterations 2
DILUPBiCG:  Solving for e, Initial residual = 0.08804269132287297, Final residual = 2.222148006412206e-20, No Iterations 2
DILUPBiCG:  Solving for p, Initial residual = 0.08805069400974282, Final residual = 1.564053493410864e-10, No Iterations 1
pEqnloop: 0
diagonal:  Solving for rho, Initial residual = 0, Final residual = 0, No Iterations 0
time step continuity errors : sum local = 1.217348107389978e-16, global = -4.442994622162821e-17, cumulative = -3.629182767676862e-15
DILUPBiCG:  Solving for p, Initial residual = 4.04133599083272e-08, Final residual = 5.687216381995767e-14, No Iterations 1
pEqnloop: 1
diagonal:  Solving for rho, Initial residual = 0, Final residual = 0, No Iterations 0
time step continuity errors : sum local = 1.131339762286814e-16, global = -2.44789893887984e-17, cumulative = -3.653661757065661e-15
DILUPBiCG:  Solving for k, Initial residual = 0.2906875148661883, Final residual = 1.916164536557575e-20, No Iterations 2
ExecutionTime = 26.47 s  ClockTime = 42 s

Courant Number mean: 5.141203809656123e-11 max: 5.187377896431862e-05
deltaT = 2.985983999999999e-09
Time = 1.19159e-08

PIMPLE: iteration 1
diagonal:  Solving for rho, Initial residual = 0, Final residual = 0, No Iterations 0
DILUPBiCG:  Solving for Ux, Initial residual = 0.2369026992966143, Final residual = 1.103887829312327e-20, No Iterations 2
DILUPBiCG:  Solving for Uy, Initial residual = 0.2369026996993699, Final residual = 1.854426735478306e-20, No Iterations 2
DILUPBiCG:  Solving for Uz, Initial residual = 0.07712850025545839, Final residual = 7.874827397447419e-21, No Iterations 2
DILUPBiCG:  Solving for e, Initial residual = 0.07711598310698481, Final residual = 2.981848808581172e-20, No Iterations 2
DILUPBiCG:  Solving for p, Initial residual = 0.07712538153664496, Final residual = 1.973153877744062e-10, No Iterations 1
pEqnloop: 0
diagonal:  Solving for rho, Initial residual = 0, Final residual = 0, No Iterations 0
time step continuity errors : sum local = 3.636573468413118e-16, global = 3.624460282685781e-16, cumulative = -3.291215728797082e-15
DILUPBiCG:  Solving for p, Initial residual = 2.654434572621353e-08, Final residual = 4.472353961459328e-14, No Iterations 1
pEqnloop: 1
diagonal:  Solving for rho, Initial residual = 0, Final residual = 0, No Iterations 0
time step continuity errors : sum local = 3.779869404766362e-16, global = 3.724379379039224e-16, cumulative = -2.91877779089316e-15
DILUPBiCG:  Solving for k, Initial residual = 0.2385156420698777, Final residual = 2.477761156456283e-20, No Iterations 2
ExecutionTime = 32.36 s  ClockTime = 50 s

Courant Number mean: 6.169524221662372e-11 max: 6.224506732903098e-05
deltaT = 3.583180799999999e-09
Time = 1.54991e-08

PIMPLE: iteration 1
diagonal:  Solving for rho, Initial residual = 0, Final residual = 0, No Iterations 0
DILUPBiCG:  Solving for Ux, Initial residual = 0.221051906165339, Final residual = 1.599347076252112e-20, No Iterations 2
DILUPBiCG:  Solving for Uy, Initial residual = 0.2210519062762475, Final residual = 2.725599070860426e-20, No Iterations 2
DILUPBiCG:  Solving for Uz, Initial residual = 0.06989938345002955, Final residual = 1.139725488518338e-20, No Iterations 2
DILUPBiCG:  Solving for e, Initial residual = 0.06988419211391718, Final residual = 4.208924907942591e-20, No Iterations 2
DILUPBiCG:  Solving for p, Initial residual = 0.06989550723673657, Final residual = 2.57558947669783e-10, No Iterations 1
pEqnloop: 0
diagonal:  Solving for rho, Initial residual = 0, Final residual = 0, No Iterations 0
time step continuity errors : sum local = 3.229182462107303e-16, global = 3.2184368950696e-16, cumulative = -2.5969341013862e-15
DILUPBiCG:  Solving for p, Initial residual = 2.024383409996443e-08, Final residual = 3.234140913446386e-14, No Iterations 1
pEqnloop: 1
diagonal:  Solving for rho, Initial residual = 0, Final residual = 0, No Iterations 0
time step continuity errors : sum local = 3.150068230649751e-16, global = 3.142027035712249e-16, cumulative = -2.282731397814975e-15
DILUPBiCG:  Solving for k, Initial residual = 0.2042781441225922, Final residual = 3.422851544735098e-20, No Iterations 2
ExecutionTime = 41.33 s  ClockTime = 61 s

Courant Number mean: 7.403545226835355e-11 max: 7.468909815230527e-05
deltaT = 4.299816959999999e-09
Time = 1.97989e-08

PIMPLE: iteration 1
diagonal:  Solving for rho, Initial residual = 0, Final residual = 0, No Iterations 0
DILUPBiCG:  Solving for Ux, Initial residual = 0.2090173326936102, Final residual = 2.387102380817807e-20, No Iterations 2
DILUPBiCG:  Solving for Uy, Initial residual = 0.209017332688333, Final residual = 4.1324203909634e-20, No Iterations 2
DILUPBiCG:  Solving for Uz, Initial residual = 0.06483302971320624, Final residual = 1.723075399819866e-20, No Iterations 2
DILUPBiCG:  Solving for e, Initial residual = 0.06481489854840009, Final residual = 6.18919648002679e-20, No Iterations 2
DILUPBiCG:  Solving for p, Initial residual = 0.06482824615628305, Final residual = 3.440952863453084e-10, No Iterations 1
pEqnloop: 0
diagonal:  Solving for rho, Initial residual = 0, Final residual = 0, No Iterations 0
time step continuity errors : sum local = 1.388670240421439e-16, global = -7.245115348951422e-17, cumulative = -2.35518255130449e-15
DILUPBiCG:  Solving for p, Initial residual = 1.7475905125533e-08, Final residual = 3.037543395631658e-14, No Iterations 1
pEqnloop: 1
diagonal:  Solving for rho, Initial residual = 0, Final residual = 0, No Iterations 0
time step continuity errors : sum local = 1.39244880610394e-16, global = -8.69770022468144e-17, cumulative = -2.442159553551304e-15
DILUPBiCG:  Solving for k, Initial residual = 0.1805908508014175, Final residual = 5.001541935687512e-20, No Iterations 2
ExecutionTime = 45.99 s  ClockTime = 69 s

Courant Number mean: 8.884424112177376e-11 max: 8.961976116517043e-05
deltaT = 5.159780351999998e-09
Time = 2.49587e-08

PIMPLE: iteration 1
diagonal:  Solving for rho, Initial residual = 0, Final residual = 0, No Iterations 0
DILUPBiCG:  Solving for Ux, Initial residual = 0.1997579594198307, Final residual = 3.663766471214796e-20, No Iterations 2
DILUPBiCG:  Solving for Uy, Initial residual = 0.1997579593012133, Final residual = 6.44440474910582e-20, No Iterations 2
DILUPBiCG:  Solving for Uz, Initial residual = 0.06113770784895976, Final residual = 2.703811228344617e-20, No Iterations 2
DILUPBiCG:  Solving for e, Initial residual = 0.06111598369491017, Final residual = 9.43152496222802e-20, No Iterations 2
DILUPBiCG:  Solving for p, Initial residual = 0.06113196320334859, Final residual = 4.674091078122105e-10, No Iterations 1
pEqnloop: 0
diagonal:  Solving for rho, Initial residual = 0, Final residual = 0, No Iterations 0
time step continuity errors : sum local = 2.868550444167812e-16, global = -2.821394687102014e-16, cumulative = -2.724299022261506e-15
DILUPBiCG:  Solving for p, Initial residual = 1.211648743412649e-08, Final residual = 2.317126171560895e-14, No Iterations 1
pEqnloop: 1
diagonal:  Solving for rho, Initial residual = 0, Final residual = 0, No Iterations 0
time step continuity errors : sum local = 2.816725011046565e-16, global = -2.778662855244663e-16, cumulative = -3.002165307785972e-15
DILUPBiCG:  Solving for k, Initial residual = 0.1635154008148318, Final residual = 7.680254139847505e-20, No Iterations 2
ExecutionTime = 50.96 s  ClockTime = 77 s

Courant Number mean: 1.066155798264196e-10 max: 0.000107533439730967
deltaT = 6.191736422399998e-09
Time = 3.11504e-08

PIMPLE: iteration 1
diagonal:  Solving for rho, Initial residual = 0, Final residual = 0, No Iterations 0
DILUPBiCG:  Solving for Ux, Initial residual = 0.1925419878060015, Final residual = 5.773676107573836e-20, No Iterations 2
DILUPBiCG:  Solving for Uy, Initial residual = 0.1925419876982128, Final residual = 1.030581813563142e-19, No Iterations 2
DILUPBiCG:  Solving for Uz, Initial residual = 0.05836281926641352, Final residual = 4.384972546870945e-20, No Iterations 2
DILUPBiCG:  Solving for e, Initial residual = 0.05833680032170489, Final residual = 1.485051210092893e-19, No Iterations 2
DILUPBiCG:  Solving for p, Initial residual = 0.0583559002678408, Final residual = 6.427771224236051e-10, No Iterations 1
pEqnloop: 0
diagonal:  Solving for rho, Initial residual = 0, Final residual = 0, No Iterations 0
time step continuity errors : sum local = 5.182601966467982e-16, global = -5.095217159005823e-16, cumulative = -3.511687023686554e-15
DILUPBiCG:  Solving for p, Initial residual = 8.177042687800495e-09, Final residual = 1.829115523146775e-14, No Iterations 1
pEqnloop: 1
diagonal:  Solving for rho, Initial residual = 0, Final residual = 0, No Iterations 0
time step continuity errors : sum local = 5.252810013846022e-16, global = -5.231353551972595e-16, cumulative = -4.034822378883814e-15
DILUPBiCG:  Solving for k, Initial residual = 0.1508056956125677, Final residual = 1.233973700670076e-19, No Iterations 2
ExecutionTime = 54.43 s  ClockTime = 86 s

Courant Number mean: 1.279423598885736e-10 max: 0.0001290253889150598
deltaT = 7.430083706879997e-09
Time = 3.85805e-08

PIMPLE: iteration 1
diagonal:  Solving for rho, Initial residual = 0, Final residual = 0, No Iterations 0
DILUPBiCG:  Solving for Ux, Initial residual = 0.1868537995012154, Final residual = 9.329162526185675e-20, No Iterations 2
DILUPBiCG:  Solving for Uy, Initial residual = 0.1868537994264373, Final residual = 1.684402863147955e-19, No Iterations 2
DILUPBiCG:  Solving for Uz, Initial residual = 0.05623286622769399, Final residual = 7.326801157413801e-20, No Iterations 2
DILUPBiCG:  Solving for e, Initial residual = 0.05620169976749505, Final residual = 2.412214103301157e-19, No Iterations 2
DILUPBiCG:  Solving for p, Initial residual = 0.05622459153434368, Final residual = 8.922509409833981e-10, No Iterations 1
pEqnloop: 0
diagonal:  Solving for rho, Initial residual = 0, Final residual = 0, No Iterations 0
time step continuity errors : sum local = 2.515660690522057e-16, global = 2.217864957402194e-16, cumulative = -3.813035883143594e-15
DILUPBiCG:  Solving for p, Initial residual = 1.0188070231785e-08, Final residual = 2.630809901526335e-14, No Iterations 1
pEqnloop: 1
diagonal:  Solving for rho, Initial residual = 0, Final residual = 0, No Iterations 0
time step continuity errors : sum local = 2.024694982196285e-16, global = 1.716615665527274e-16, cumulative = -3.641374316590867e-15
DILUPBiCG:  Solving for k, Initial residual = 0.1411036506619754, Final residual = 2.068009760027215e-19, No Iterations 2
ExecutionTime = 58.6 s  ClockTime = 97 s

Courant Number mean: 1.535362429320104e-10 max: 0.0001548093385833503
deltaT = 8.916100448255996e-09
Time = 4.74966e-08

PIMPLE: iteration 1
diagonal:  Solving for rho, Initial residual = 0, Final residual = 0, No Iterations 0
DILUPBiCG:  Solving for Ux, Initial residual = 0.1823252010014008, Final residual = 1.54334571941213e-19, No Iterations 2
DILUPBiCG:  Solving for Uy, Initial residual = 0.1823252008855478, Final residual = 2.955732769379829e-19, No Iterations 2
DILUPBiCG:  Solving for Uz, Initial residual = 0.05456982741595852, Final residual = 1.258046002643602e-19, No Iterations 2
DILUPBiCG:  Solving for e, Initial residual = 0.05453249263836273, Final residual = 4.038595930497877e-19, No Iterations 2
DILUPBiCG:  Solving for p, Initial residual = 0.05455990487999367, Final residual = 1.247570638617778e-09, No Iterations 1
pEqnloop: 0
diagonal:  Solving for rho, Initial residual = 0, Final residual = 0, No Iterations 0
time step continuity errors : sum local = 1.535236839954033e-16, global = -7.141548577998565e-17, cumulative = -3.712789802370852e-15
DILUPBiCG:  Solving for p, Initial residual = 9.692659546792494e-09, Final residual = 2.933011809083004e-14, No Iterations 1
pEqnloop: 1
diagonal:  Solving for rho, Initial residual = 0, Final residual = 0, No Iterations 0
time step continuity errors : sum local = 1.533567508807064e-16, global = -1.094790383907032e-16, cumulative = -3.822268840761555e-15
DILUPBiCG:  Solving for k, Initial residual = 0.1335466811504897, Final residual = 3.606217437467245e-19, No Iterations 2
ExecutionTime = 65.27 s  ClockTime = 107 s

Courant Number mean: 1.842515163814999e-10 max: 0.0001857409471672459
deltaT = 1.069932053790719e-08
Time = 5.81959e-08

PIMPLE: iteration 1
diagonal:  Solving for rho, Initial residual = 0, Final residual = 0, No Iterations 0
DILUPBiCG:  Solving for Ux, Initial residual = 0.1786887487607138, Final residual = 2.609449968321987e-19, No Iterations 2
DILUPBiCG:  Solving for Uy, Initial residual = 0.1786887486770141, Final residual = 5.471005019920668e-19, No Iterations 2
DILUPBiCG:  Solving for Uz, Initial residual = 0.05325349149527603, Final residual = 2.214462732600222e-19, No Iterations 2
DILUPBiCG:  Solving for e, Initial residual = 0.05320876836646259, Final residual = 6.9658037550357e-19, No Iterations 2
DILUPBiCG:  Solving for p, Initial residual = 0.05324158902266654, Final residual = 1.754397030064394e-09, No Iterations 1
pEqnloop: 0
diagonal:  Solving for rho, Initial residual = 0, Final residual = 0, No Iterations 0
time step continuity errors : sum local = 1.699288736014134e-16, global = -9.000516968552516e-17, cumulative = -3.912274010447081e-15
DILUPBiCG:  Solving for p, Initial residual = 7.038231299668891e-09, Final residual = 2.512541655820341e-14, No Iterations 1
pEqnloop: 1
diagonal:  Solving for rho, Initial residual = 0, Final residual = 0, No Iterations 0
time step continuity errors : sum local = 1.516638695206385e-16, global = -1.219827137069468e-16, cumulative = -4.034256724154027e-15
DILUPBiCG:  Solving for k, Initial residual = 0.1275637938276643, Final residual = 6.528809487763187e-19, No Iterations 2
ExecutionTime = 69.84 s  ClockTime = 113 s

Courant Number mean: 2.211137773193913e-10 max: 0.0002228458487620227
deltaT = 1.283918464548863e-08
Time = 7.10351e-08

PIMPLE: iteration 1
diagonal:  Solving for rho, Initial residual = 0, Final residual = 0, No Iterations 0
DILUPBiCG:  Solving for Ux, Initial residual = 0.1757467126397103, Final residual = 4.498862025084744e-19, No Iterations 2
DILUPBiCG:  Solving for Uy, Initial residual = 0.1757467126115431, Final residual = 1.053391549856806e-18, No Iterations 2
DILUPBiCG:  Solving for Uz, Initial residual = 0.0521997191709159, Final residual = 3.986344592092039e-19, No Iterations 2
DILUPBiCG:  Solving for e, Initial residual = 0.052146065922327, Final residual = 1.237267139815731e-18, No Iterations 2
DILUPBiCG:  Solving for p, Initial residual = 0.05218547290506432, Final residual = 2.478430525634684e-09, No Iterations 1
pEqnloop: 0
diagonal:  Solving for rho, Initial residual = 0, Final residual = 0, No Iterations 0
time step continuity errors : sum local = 4.865540436541058e-16, global = -4.280142242954853e-16, cumulative = -4.462270948449512e-15
DILUPBiCG:  Solving for p, Initial residual = 6.16370049385821e-09, Final residual = 2.606590928461918e-14, No Iterations 1
pEqnloop: 1
diagonal:  Solving for rho, Initial residual = 0, Final residual = 0, No Iterations 0
time step continuity errors : sum local = 4.332658835588587e-16, global = -4.332258641229776e-16, cumulative = -4.89549681257249e-15
DILUPBiCG:  Solving for k, Initial residual = 0.1227635706602406, Final residual = 1.22435670825437e-18, No Iterations 2
ExecutionTime = 75.14 s  ClockTime = 122 s

Courant Number mean: 2.653544440149465e-10 max: 0.0002673531757326265
deltaT = 1.540702157458636e-08
Time = 8.64421e-08

PIMPLE: iteration 1
diagonal:  Solving for rho, Initial residual = 0, Final residual = 0, No Iterations 0
DILUPBiCG:  Solving for Ux, Initial residual = 0.1733503889717112, Final residual = 7.884496841108895e-19, No Iterations 2
DILUPBiCG:  Solving for Uy, Initial residual = 0.1733503890052936, Final residual = 2.062729442056444e-18, No Iterations 2
DILUPBiCG:  Solving for Uz, Initial residual = 0.05134783532383198, Final residual = 7.319404041588332e-19, No Iterations 2
DILUPBiCG:  Solving for e, Initial residual = 0.05128358457915039, Final residual = 2.262020862161612e-18, No Iterations 2
DILUPBiCG:  Solving for p, Initial residual = 0.05133082915445954, Final residual = 3.514252740968838e-09, No Iterations 1
pEqnloop: 0
diagonal:  Solving for rho, Initial residual = 0, Final residual = 0, No Iterations 0
time step continuity errors : sum local = 3.202862250089162e-16, global = 2.454773951506823e-16, cumulative = -4.650019417421808e-15
DILUPBiCG:  Solving for p, Initial residual = 7.109891475557007e-09, Final residual = 3.572564879102962e-14, No Iterations 1
pEqnloop: 1
diagonal:  Solving for rho, Initial residual = 0, Final residual = 0, No Iterations 0
time step continuity errors : sum local = 2.459563896700586e-16, global = 2.375521382934876e-16, cumulative = -4.41246727912832e-15
DILUPBiCG:  Solving for k, Initial residual = 0.1188695542633474, Final residual = 2.372425787220319e-18, No Iterations 2
ExecutionTime = 78.87 s  ClockTime = 131 s

Courant Number mean: 3.184523155228151e-10 max: 0.0003207356037221298
deltaT = 1.848842588950363e-08
Time = 1.04931e-07

PIMPLE: iteration 1
diagonal:  Solving for rho, Initial residual = 0, Final residual = 0, No Iterations 0
DILUPBiCG:  Solving for Ux, Initial residual = 0.1713861681282145, Final residual = 1.398582630032063e-18, No Iterations 2
DILUPBiCG:  Solving for Uy, Initial residual = 0.171386168175065, Final residual = 4.116622327958016e-18, No Iterations 2
DILUPBiCG:  Solving for Uz, Initial residual = 0.05065296332207248, Final residual = 1.366615136302631e-18, No Iterations 2
DILUPBiCG:  Solving for e, Initial residual = 0.05057604357048023, Final residual = 4.253724529659284e-18, No Iterations 2
DILUPBiCG:  Solving for p, Initial residual = 0.05063268416451411, Final residual = 4.998107361721339e-09, No Iterations 1
pEqnloop: 0
diagonal:  Solving for rho, Initial residual = 0, Final residual = 0, No Iterations 0
time step continuity errors : sum local = 4.274245534449525e-16, global = 3.214705816062934e-16, cumulative = -4.090996697522026e-15
DILUPBiCG:  Solving for p, Initial residual = 7.856639339348045e-09, Final residual = 4.709858243873482e-14, No Iterations 1
pEqnloop: 1
diagonal:  Solving for rho, Initial residual = 0, Final residual = 0, No Iterations 0
time step continuity errors : sum local = 2.794233206143204e-16, global = 2.760361758342999e-16, cumulative = -3.814960521687727e-15
DILUPBiCG:  Solving for k, Initial residual = 0.1156814569300024, Final residual = 4.737009377635471e-18, No Iterations 2
ExecutionTime = 84.59 s  ClockTime = 140 s

Courant Number mean: 3.821836782904532e-10 max: 0.0003847571616184499
deltaT = 2.218611106740435e-08
Time = 1.27117e-07

PIMPLE: iteration 1
diagonal:  Solving for rho, Initial residual = 0, Final residual = 0, No Iterations 0
DILUPBiCG:  Solving for Ux, Initial residual = 0.1697659762309195, Final residual = 2.495505240673306e-18, No Iterations 2
DILUPBiCG:  Solving for Uy, Initial residual = 0.1697659762724255, Final residual = 8.408997325478476e-18, No Iterations 2
DILUPBiCG:  Solving for Uz, Initial residual = 0.05008116439142797, Final residual = 2.585148514753361e-18, No Iterations 2
DILUPBiCG:  Solving for e, Initial residual = 0.04998909813647016, Final residual = 8.219292861066046e-18, No Iterations 2
DILUPBiCG:  Solving for p, Initial residual = 0.05005702946744107, Final residual = 7.126391549782561e-09, No Iterations 1
pEqnloop: 0
diagonal:  Solving for rho, Initial residual = 0, Final residual = 0, No Iterations 0
time step continuity errors : sum local = 4.871929507991476e-16, global = -1.680753342647393e-16, cumulative = -3.983035855952466e-15
DILUPBiCG:  Solving for p, Initial residual = 9.297936096671636e-09, Final residual = 6.674570748049127e-14, No Iterations 1
pEqnloop: 1
diagonal:  Solving for rho, Initial residual = 0, Final residual = 0, No Iterations 0
time step continuity errors : sum local = 2.496855909805064e-16, global = -2.333711142219769e-16, cumulative = -4.216406970174443e-15
DILUPBiCG:  Solving for k, Initial residual = 0.1130508733743683, Final residual = 9.717876747395713e-18, No Iterations 2
ExecutionTime = 88.59999999999999 s  ClockTime = 148 s

Courant Number mean: 4.586828152571441e-10 max: 0.0004615302830703819
deltaT = 2.662333328088522e-08
Time = 1.5374e-07

PIMPLE: iteration 1
diagonal:  Solving for rho, Initial residual = 0, Final residual = 0, No Iterations 0
DILUPBiCG:  Solving for Ux, Initial residual = 0.1684205859600747, Final residual = 4.437464939946675e-18, No Iterations 2
DILUPBiCG:  Solving for Uy, Initial residual = 0.1684205859925574, Final residual = 1.770574547284383e-17, No Iterations 2
DILUPBiCG:  Solving for Uz, Initial residual = 0.04960627258573654, Final residual = 4.93139083932996e-18, No Iterations 2
DILUPBiCG:  Solving for e, Initial residual = 0.04949610184434965, Final residual = 1.629668876492541e-17, No Iterations 2
DILUPBiCG:  Solving for p, Initial residual = 0.04957759084642486, Final residual = 1.018242326082514e-08, No Iterations 1
pEqnloop: 0
diagonal:  Solving for rho, Initial residual = 0, Final residual = 0, No Iterations 0
time step continuity errors : sum local = 1.01106589211169e-15, global = -4.864218718448835e-16, cumulative = -4.702828842019326e-15
DILUPBiCG:  Solving for p, Initial residual = 1.21122301427721e-08, Final residual = 1.043888820629905e-13, No Iterations 1
pEqnloop: 1
diagonal:  Solving for rho, Initial residual = 0, Final residual = 0, No Iterations 0
time step continuity errors : sum local = 5.884366495273525e-16, global = -5.861712788805863e-16, cumulative = -5.289000120899913e-15
DILUPBiCG:  Solving for k, Initial residual = 0.1108656712400994, Final residual = 2.042088496711642e-17, No Iterations 2
ExecutionTime = 96.61 s  ClockTime = 161 s

Courant Number mean: 5.505152374424913e-10 max: 0.0005535838593398175
deltaT = 3.194799993706226e-08
Time = 1.85688e-07

PIMPLE: iteration 1
diagonal:  Solving for rho, Initial residual = 0, Final residual = 0, No Iterations 0
DILUPBiCG:  Solving for Ux, Initial residual = 0.1672948817922787, Final residual = 7.744630421218852e-18, No Iterations 2
DILUPBiCG:  Solving for Uy, Initial residual = 0.1672948818128929, Final residual = 4.232759546603384e-17, No Iterations 2
DILUPBiCG:  Solving for Uz, Initial residual = 0.04920774228707719, Final residual = 9.426731689968177e-18, No Iterations 2
DILUPBiCG:  Solving for e, Initial residual = 0.04907595358259936, Final residual = 3.310015486784491e-17, No Iterations 2
DILUPBiCG:  Solving for p, Initial residual = 0.04917370401820607, Final residual = 1.45752449458665e-08, No Iterations 1
pEqnloop: 0
diagonal:  Solving for rho, Initial residual = 0, Final residual = 0, No Iterations 0
time step continuity errors : sum local = 8.477981983805793e-16, global = 1.531599911960208e-16, cumulative = -5.135840129703892e-15
DILUPBiCG:  Solving for p, Initial residual = 1.499092830112569e-08, Final residual = 1.556903950673943e-13, No Iterations 1
pEqnloop: 1
diagonal:  Solving for rho, Initial residual = 0, Final residual = 0, No Iterations 0
time step continuity errors : sum local = 1.167733603373993e-16, global = -5.076555026378354e-17, cumulative = -5.186605679967676e-15
DILUPBiCG:  Solving for k, Initial residual = 0.1090397033149242, Final residual = 4.382230293879992e-17, No Iterations 2
ExecutionTime = 104.12 s  ClockTime = 171 s

Courant Number mean: 6.60766576172609e-10 max: 0.0006639444024474666
deltaT = 3.833759992447472e-08
Time = 2.24026e-07

PIMPLE: iteration 1
diagonal:  Solving for rho, Initial residual = 0, Final residual = 0, No Iterations 0
DILUPBiCG:  Solving for Ux, Initial residual = 0.1663444085742025, Final residual = 1.289713505654385e-17, No Iterations 2
DILUPBiCG:  Solving for Uy, Initial residual = 0.1663444085828177, Final residual = 1.077538951945247e-16, No Iterations 2
DILUPBiCG:  Solving for Uz, Initial residual = 0.04886915209422447, Final residual = 1.789095523120137e-17, No Iterations 2
DILUPBiCG:  Solving for e, Initial residual = 0.04871155491642675, Final residual = 6.873392435218162e-17, No Iterations 2
DILUPBiCG:  Solving for p, Initial residual = 0.04882884451056303, Final residual = 2.089594387260876e-08, No Iterations 1
pEqnloop: 0
diagonal:  Solving for rho, Initial residual = 0, Final residual = 0, No Iterations 0
time step continuity errors : sum local = 1.383723878000297e-15, global = 4.253901841527619e-16, cumulative = -4.761215495814914e-15
DILUPBiCG:  Solving for p, Initial residual = 2.036021256934698e-08, Final residual = 2.554556908993952e-13, No Iterations 1
pEqnloop: 1
diagonal:  Solving for rho, Initial residual = 0, Final residual = 0, No Iterations 0
time step continuity errors : sum local = 1.336229540379647e-16, global = 7.865298818605481e-17, cumulative = -4.682562507628859e-15
DILUPBiCG:  Solving for k, Initial residual = 0.1075057488410369, Final residual = 9.575511612772399e-17, No Iterations 2
ExecutionTime = 109.13 s  ClockTime = 179 s

Courant Number mean: 7.931509158476516e-10 max: 0.0007962328698137065
deltaT = 4.600511990936966e-08
Time = 2.70031e-07

PIMPLE: iteration 1
diagonal:  Solving for rho, Initial residual = 0, Final residual = 0, No Iterations 0
DILUPBiCG:  Solving for Ux, Initial residual = 0.1655328422261071, Final residual = 1.921429780485888e-17, No Iterations 2
DILUPBiCG:  Solving for Uy, Initial residual = 0.1655328422300462, Final residual = 3.021043117661336e-16, No Iterations 2
DILUPBiCG:  Solving for Uz, Initial residual = 0.04857713511428808, Final residual = 3.320051792318316e-17, No Iterations 2
DILUPBiCG:  Solving for e, Initial residual = 0.04838876906684769, Final residual = 1.456061064948245e-16, No Iterations 2
DILUPBiCG:  Solving for p, Initial residual = 0.04852954059546211, Final residual = 2.999951145956065e-08, No Iterations 1
pEqnloop: 0
diagonal:  Solving for rho, Initial residual = 0, Final residual = 0, No Iterations 0
time step continuity errors : sum local = 2.418966881156902e-15, global = 2.963731690668837e-16, cumulative = -4.386189338561975e-15
DILUPBiCG:  Solving for p, Initial residual = 2.862928039407687e-08, Final residual = 4.351178904464818e-13, No Iterations 1
pEqnloop: 1
diagonal:  Solving for rho, Initial residual = 0, Final residual = 0, No Iterations 0
time step continuity errors : sum local = 2.643170770065532e-16, global = -2.549591121175748e-16, cumulative = -4.64114845067955e-15
DILUPBiCG:  Solving for k, Initial residual = 0.1062106420315305, Final residual = 2.124663589463028e-16, No Iterations 2
ExecutionTime = 115.67 s  ClockTime = 188 s

Courant Number mean: 9.521435221503385e-10 max: 0.0009547802819188148
deltaT = 5.520614389124359e-08
Time = 3.25237e-07

PIMPLE: iteration 1
diagonal:  Solving for rho, Initial residual = 0, Final residual = 0, No Iterations 0
DILUPBiCG:  Solving for Ux, Initial residual = 0.164830083805219, Final residual = 2.046668621370866e-17, No Iterations 2
DILUPBiCG:  Solving for Uy, Initial residual = 0.1648300838040274, Final residual = 1.243133248080657e-15, No Iterations 2
DILUPBiCG:  Solving for Uz, Initial residual = 0.04832060394757901, Final residual = 5.848165459675586e-17, No Iterations 2
DILUPBiCG:  Solving for e, Initial residual = 0.04809558909367955, Final residual = 3.139507552869482e-16, No Iterations 2
DILUPBiCG:  Solving for p, Initial residual = 0.04826457691385458, Final residual = 4.312400930828251e-08, No Iterations 1
pEqnloop: 0
diagonal:  Solving for rho, Initial residual = 0, Final residual = 0, No Iterations 0
time step continuity errors : sum local = 3.93673719691923e-15, global = 1.150824439287891e-15, cumulative = -3.490324011391658e-15
DILUPBiCG:  Solving for p, Initial residual = 4.071219800697445e-08, Final residual = 7.518927329181996e-13, No Iterations 1
pEqnloop: 1
diagonal:  Solving for rho, Initial residual = 0, Final residual = 0, No Iterations 0
time step continuity errors : sum local = 2.642807467449371e-16, global = 2.072539707289192e-16, cumulative = -3.283070040662739e-15
DILUPBiCG:  Solving for k, Initial residual = 0.1051118191384659, Final residual = 4.775399557182281e-16, No Iterations 2
ExecutionTime = 120.78 s  ClockTime = 196 s

Courant Number mean: 1.143144601516594e-09 max: 0.001144766058994421
deltaT = 6.62473726694923e-08
Time = 3.91484e-07

PIMPLE: iteration 1
diagonal:  Solving for rho, Initial residual = 0, Final residual = 0, No Iterations 0
DILUPBiCG:  Solving for Ux, Initial residual = 0.1642108090172237, Final residual = 4.586171751589386e-17, No Iterations 2
DILUPBiCG:  Solving for Uy, Initial residual = 0.1642108090149423, Final residual = 7.671743053034842e-14, No Iterations 2
DILUPBiCG:  Solving for Uz, Initial residual = 0.04809017019502636, Final residual = 1.408549838177228e-16, No Iterations 2
DILUPBiCG:  Solving for e, Initial residual = 0.04782162231032321, Final residual = 6.874012595118985e-16, No Iterations 2
DILUPBiCG:  Solving for p, Initial residual = 0.04802450499732178, Final residual = 6.20644503955812e-08, No Iterations 1
pEqnloop: 0
diagonal:  Solving for rho, Initial residual = 0, Final residual = 0, No Iterations 0
time step continuity errors : sum local = 6.663458705057488e-15, global = 1.904241907865337e-15, cumulative = -1.378828132797402e-15
DILUPBiCG:  Solving for p, Initial residual = 5.840046127339597e-08, Final residual = 3.47825412758367e-19, No Iterations 2
pEqnloop: 1
diagonal:  Solving for rho, Initial residual = 0, Final residual = 0, No Iterations 0
time step continuity errors : sum local = 2.307168561531041e-16, global = 2.200759149508938e-16, cumulative = -1.158752217846509e-15
DILUPBiCG:  Solving for k, Initial residual = 0.1041748254812455, Final residual = 1.084882772076597e-15, No Iterations 2
ExecutionTime = 131.45 s  ClockTime = 210 s

Courant Number mean: 1.372683189748197e-09 max: 0.001372384141132377
deltaT = 7.949684720339076e-08
Time = 4.70981e-07

PIMPLE: iteration 1
diagonal:  Solving for rho, Initial residual = 0, Final residual = 0, No Iterations 0
DILUPBiCG:  Solving for Ux, Initial residual = 0.1636533444833422, Final residual = 2.379487527093017e-16, No Iterations 2
DILUPBiCG:  Solving for Uy, Initial residual = 0.1636533444780053, Final residual = 4.635337137736175e-15, No Iterations 2
DILUPBiCG:  Solving for Uz, Initial residual = 0.04787770355042232, Final residual = 4.837489701878604e-16, No Iterations 2
DILUPBiCG:  Solving for e, Initial residual = 0.04755752937456744, Final residual = 1.524893344695526e-15, No Iterations 2
DILUPBiCG:  Solving for p, Initial residual = 0.04780112235350648, Final residual = 8.942687791635585e-08, No Iterations 1
pEqnloop: 0
diagonal:  Solving for rho, Initial residual = 0, Final residual = 0, No Iterations 0
time step continuity errors : sum local = 1.132521058131818e-14, global = 3.113428720954507e-15, cumulative = 1.954676503107998e-15
DILUPBiCG:  Solving for p, Initial residual = 8.460243340665886e-08, Final residual = 1.067274718104282e-18, No Iterations 2
pEqnloop: 1
diagonal:  Solving for rho, Initial residual = 0, Final residual = 0, No Iterations 0
time step continuity errors : sum local = 1.47301455655481e-16, global = 1.239605607867618e-16, cumulative = 2.07863706389476e-15
DILUPBiCG:  Solving for k, Initial residual = 0.1033714889473136, Final residual = 2.486634893344355e-15, No Iterations 2
ExecutionTime = 139.73 s  ClockTime = 220 s

Courant Number mean: 1.648673951174727e-09 max: 0.001645043660237712
deltaT = 9.53962166440689e-08
Time = 5.66377e-07

PIMPLE: iteration 1
diagonal:  Solving for rho, Initial residual = 0, Final residual = 0, No Iterations 0
DILUPBiCG:  Solving for Ux, Initial residual = 0.1631387974936163, Final residual = 9.136621693969172e-16, No Iterations 2
DILUPBiCG:  Solving for Uy, Initial residual = 0.1631387974884403, Final residual = 4.769731727226175e-15, No Iterations 2
DILUPBiCG:  Solving for Uz, Initial residual = 0.04767599177149333, Final residual = 1.720901034611044e-15, No Iterations 2
DILUPBiCG:  Solving for e, Initial residual = 0.04729473479895493, Final residual = 3.419878342736323e-15, No Iterations 2
DILUPBiCG:  Solving for p, Initial residual = 0.04758721638501776, Final residual = 1.290007055862193e-07, No Iterations 1
pEqnloop: 0
diagonal:  Solving for rho, Initial residual = 0, Final residual = 0, No Iterations 0
time step continuity errors : sum local = 1.98229309089376e-14, global = 5.705849423270738e-15, cumulative = 7.784486487165498e-15
DILUPBiCG:  Solving for p, Initial residual = 1.227691203588636e-07, Final residual = 3.293141942354978e-18, No Iterations 2
pEqnloop: 1
diagonal:  Solving for rho, Initial residual = 0, Final residual = 0, No Iterations 0
time step continuity errors : sum local = 5.105418488192927e-16, global = 5.04004536760209e-16, cumulative = 8.288491023925707e-15
DILUPBiCG:  Solving for k, Initial residual = 0.1026785526782096, Final residual = 5.741699885305916e-15, No Iterations 2
ExecutionTime = 144.19 s  ClockTime = 228 s

Courant Number mean: 1.980745283253025e-09 max: 0.00197161358078913
deltaT = 1.144754599728827e-07
Time = 6.80853e-07

PIMPLE: iteration 1
diagonal:  Solving for rho, Initial residual = 0, Final residual = 0, No Iterations 0
DILUPBiCG:  Solving for Ux, Initial residual = 0.1626503755651169, Final residual = 3.13672470259371e-15, No Iterations 2
DILUPBiCG:  Solving for Uy, Initial residual = 0.1626503755615581, Final residual = 1.456493728254564e-14, No Iterations 2
DILUPBiCG:  Solving for Uz, Initial residual = 0.04747847880868215, Final residual = 7.186936966386042e-15, No Iterations 2
DILUPBiCG:  Solving for e, Initial residual = 0.04702517996184462, Final residual = 7.738467905291075e-15, No Iterations 2
DILUPBiCG:  Solving for p, Initial residual = 0.04737633549790027, Final residual = 1.863055304174001e-07, No Iterations 1
pEqnloop: 0
diagonal:  Solving for rho, Initial residual = 0, Final residual = 0, No Iterations 0
time step continuity errors : sum local = 3.362228773224995e-14, global = 8.97687797778546e-15, cumulative = 1.726536900171116e-14
DILUPBiCG:  Solving for p, Initial residual = 1.792419204446346e-07, Final residual = 1.026579883019897e-17, No Iterations 2
pEqnloop: 1
diagonal:  Solving for rho, Initial residual = 0, Final residual = 0, No Iterations 0
time step continuity errors : sum local = 1.789678849792703e-16, global = -1.397758854523985e-16, cumulative = 1.712559311625877e-14
DILUPBiCG:  Solving for k, Initial residual = 0.1020766852074154, Final residual = 1.333969411982316e-14, No Iterations 2
ExecutionTime = 152.73 s  ClockTime = 239 s

Courant Number mean: 2.380665807847664e-09 max: 0.002362724964306341
deltaT = 1.373705519674592e-07
Time = 8.18223e-07

PIMPLE: iteration 1
diagonal:  Solving for rho, Initial residual = 0, Final residual = 0, No Iterations 0
DILUPBiCG:  Solving for Ux, Initial residual = 0.1621728660034492, Final residual = 1.018281911648531e-14, No Iterations 2
DILUPBiCG:  Solving for Uy, Initial residual = 0.1621728660001498, Final residual = 4.273992135393852e-14, No Iterations 2
DILUPBiCG:  Solving for Uz, Initial residual = 0.04727908020810942, Final residual = 9.980427530760766e-14, No Iterations 2
DILUPBiCG:  Solving for e, Initial residual = 0.04674109750890296, Final residual = 1.763547557699512e-14, No Iterations 2
DILUPBiCG:  Solving for p, Initial residual = 0.0471626225948542, Final residual = 2.69396204375468e-07, No Iterations 1
pEqnloop: 0
diagonal:  Solving for rho, Initial residual = 0, Final residual = 0, No Iterations 0
time step continuity errors : sum local = 5.821244745995104e-14, global = 1.63125430781587e-14, cumulative = 3.343813619441747e-14
DILUPBiCG:  Solving for p, Initial residual = 2.627314870717266e-07, Final residual = 3.228483461046838e-17, No Iterations 2
pEqnloop: 1
diagonal:  Solving for rho, Initial residual = 0, Final residual = 0, No Iterations 0
time step continuity errors : sum local = 2.63716958132632e-16, global = 2.504531950282104e-16, cumulative = 3.368858938944568e-14
DILUPBiCG:  Solving for k, Initial residual = 0.1015496993643829, Final residual = 3.11550698072756e-14, No Iterations 2
ExecutionTime = 158.04 s  ClockTime = 251 s

Courant Number mean: 2.862909935920228e-09 max: 0.002831151431733681
deltaT = 1.64844662360951e-07
Time = 9.83068e-07

PIMPLE: iteration 1
diagonal:  Solving for rho, Initial residual = 0, Final residual = 0, No Iterations 0
DILUPBiCG:  Solving for Ux, Initial residual = 0.1616922615259417, Final residual = 3.201095780561265e-14, No Iterations 2
DILUPBiCG:  Solving for Uy, Initial residual = 0.1616922615235979, Final residual = 1.269596658043773e-13, No Iterations 2
DILUPBiCG:  Solving for Uz, Initial residual = 0.04707203828855765, Final residual = 5.035418689132605e-14, No Iterations 2
DILUPBiCG:  Solving for e, Initial residual = 0.04643494735953911, Final residual = 4.041231667821192e-14, No Iterations 2
DILUPBiCG:  Solving for p, Initial residual = 0.04694076305454027, Final residual = 3.900511392934208e-07, No Iterations 1
pEqnloop: 0
diagonal:  Solving for rho, Initial residual = 0, Final residual = 0, No Iterations 0
time step continuity errors : sum local = 1.007101189912503e-13, global = 2.859968121030687e-14, cumulative = 6.228827059975254e-14
DILUPBiCG:  Solving for p, Initial residual = 3.862512627617435e-07, Final residual = 1.023966990678585e-16, No Iterations 2
pEqnloop: 1
diagonal:  Solving for rho, Initial residual = 0, Final residual = 0, No Iterations 0
time step continuity errors : sum local = 2.019548836161197e-16, global = 1.941943931491397e-16, cumulative = 6.248246499290168e-14
DILUPBiCG:  Solving for k, Initial residual = 0.1010839782497817, Final residual = 7.309649208636026e-14, No Iterations 2
ExecutionTime = 165.2 s  ClockTime = 260 s

Courant Number mean: 3.445424697988351e-09 max: 0.003392299833723809
deltaT = 1.978135948331412e-07
Time = 1.18088e-06

PIMPLE: iteration 1
diagonal:  Solving for rho, Initial residual = 0, Final residual = 0, No Iterations 0
DILUPBiCG:  Solving for Ux, Initial residual = 0.1611955281000234, Final residual = 9.862307698197272e-14, No Iterations 2
DILUPBiCG:  Solving for Uy, Initial residual = 0.1611955280985311, Final residual = 3.884985196297869e-13, No Iterations 2
DILUPBiCG:  Solving for Uz, Initial residual = 0.04685187130836795, Final residual = 6.722580483013447e-14, No Iterations 2
DILUPBiCG:  Solving for e, Initial residual = 0.04609939244122332, Final residual = 9.298957794772951e-14, No Iterations 2
DILUPBiCG:  Solving for p, Initial residual = 0.04670597401169939, Final residual = 5.65529766568793e-07, No Iterations 1
pEqnloop: 0
diagonal:  Solving for rho, Initial residual = 0, Final residual = 0, No Iterations 0
time step continuity errors : sum local = 1.748660159056709e-13, global = 4.970148425958902e-14, cumulative = 1.121839492524907e-13
DILUPBiCG:  Solving for p, Initial residual = 5.692583803228846e-07, Final residual = 3.276333633540285e-16, No Iterations 2
pEqnloop: 1
diagonal:  Solving for rho, Initial residual = 0, Final residual = 0, No Iterations 0
time step continuity errors : sum local = 5.855363928050708e-16, global = -5.838060164330334e-16, cumulative = 1.116001432360577e-13
DILUPBiCG:  Solving for k, Initial residual = 0.100668044115179, Final residual = 1.73097636566402e-13, No Iterations 2
ExecutionTime = 173.19 s  ClockTime = 271 s

Courant Number mean: 4.150694228482582e-09 max: 0.004064862143466309
deltaT = 2.373763137997695e-07
Time = 1.41826e-06

PIMPLE: iteration 1
diagonal:  Solving for rho, Initial residual = 0, Final residual = 0, No Iterations 0
DILUPBiCG:  Solving for Ux, Initial residual = 0.1606705318937345, Final residual = 2.997670113036848e-13, No Iterations 2
DILUPBiCG:  Solving for Uy, Initial residual = 0.1606705318934913, Final residual = 4.131331467711752e-19, No Iterations 3
DILUPBiCG:  Solving for Uz, Initial residual = 0.04661339291580836, Final residual = 1.805464296255635e-13, No Iterations 2
DILUPBiCG:  Solving for e, Initial residual = 0.04572743435878363, Final residual = 2.146029118282859e-13, No Iterations 2
DILUPBiCG:  Solving for p, Initial residual = 0.04645412292098363, Final residual = 8.211761165211736e-07, No Iterations 1
pEqnloop: 0
diagonal:  Solving for rho, Initial residual = 0, Final residual = 0, No Iterations 0
time step continuity errors : sum local = 3.026666535363213e-13, global = 8.931942624803027e-14, cumulative = 2.009195694840879e-13
DILUPBiCG:  Solving for p, Initial residual = 8.412954835741216e-07, Final residual = 1.058681736392933e-15, No Iterations 2
pEqnloop: 1
diagonal:  Solving for rho, Initial residual = 0, Final residual = 0, No Iterations 0
time step continuity errors : sum local = 1.26901571406847e-16, global = -3.64243027961209e-18, cumulative = 2.009159270538083e-13
DILUPBiCG:  Solving for k, Initial residual = 0.1002922723334035, Final residual = 4.171180144119038e-13, No Iterations 2
ExecutionTime = 178.41 s  ClockTime = 279 s

Courant Number mean: 5.00725281478671e-09 max: 0.004871711167259791
deltaT = 2.848515765597234e-07
Time = 1.70311e-06

PIMPLE: iteration 1
diagonal:  Solving for rho, Initial residual = 0, Final residual = 0, No Iterations 0
DILUPBiCG:  Solving for Ux, Initial residual = 0.16010615504062, Final residual = 9.023408918977654e-13, No Iterations 2
DILUPBiCG:  Solving for Uy, Initial residual = 0.160106155042154, Final residual = 1.453167782262611e-18, No Iterations 3
DILUPBiCG:  Solving for Uz, Initial residual = 0.04635182046498362, Final residual = 5.289178511621179e-13, No Iterations 2
DILUPBiCG:  Solving for e, Initial residual = 0.0453126821108582, Final residual = 4.962234064430657e-13, No Iterations 2
DILUPBiCG:  Solving for p, Initial residual = 0.04618192338131977, Final residual = 1.194276720561968e-06, No Iterations 1
pEqnloop: 0
diagonal:  Solving for rho, Initial residual = 0, Final residual = 0, No Iterations 0
time step continuity errors : sum local = 5.256257876842e-13, global = 1.594699533134529e-13, cumulative = 3.603858803672613e-13
DILUPBiCG:  Solving for p, Initial residual = 1.246005284294882e-06, Final residual = 3.456897393489417e-15, No Iterations 2
pEqnloop: 1
diagonal:  Solving for rho, Initial residual = 0, Final residual = 0, No Iterations 0
time step continuity errors : sum local = 1.524343021230301e-16, global = 1.215363420272074e-16, cumulative = 3.605074167092884e-13
DILUPBiCG:  Solving for k, Initial residual = 0.09994863968526085, Final residual = 2.987776198074179e-18, No Iterations 3
ExecutionTime = 183.25 s  ClockTime = 293 s

Courant Number mean: 6.051884247976464e-09 max: 0.00584117488341125
deltaT = 3.41821891871668e-07
Time = 2.04493e-06

PIMPLE: iteration 1
diagonal:  Solving for rho, Initial residual = 0, Final residual = 0, No Iterations 0
DILUPBiCG:  Solving for Ux, Initial residual = 0.1594926442096433, Final residual = 2.303963183408666e-20, No Iterations 3
DILUPBiCG:  Solving for Uy, Initial residual = 0.1594926442169662, Final residual = 5.119258201821411e-18, No Iterations 3
DILUPBiCG:  Solving for Uz, Initial residual = 0.04606310217070164, Final residual = 1.077081058096244e-17, No Iterations 3
DILUPBiCG:  Solving for e, Initial residual = 0.04484987092809082, Final residual = 5.372814127933801e-18, No Iterations 3
DILUPBiCG:  Solving for p, Initial residual = 0.04588727558726381, Final residual = 1.739769361069504e-06, No Iterations 1
pEqnloop: 0
diagonal:  Solving for rho, Initial residual = 0, Final residual = 0, No Iterations 0
time step continuity errors : sum local = 9.135696534556669e-13, global = 2.851057590334158e-13, cumulative = 6.456131757427043e-13
DILUPBiCG:  Solving for p, Initial residual = 1.848880769122348e-06, Final residual = 1.141691798117308e-14, No Iterations 2
pEqnloop: 1
diagonal:  Solving for rho, Initial residual = 0, Final residual = 0, No Iterations 0
time step continuity errors : sum local = 1.923575172791046e-16, global = -1.73365002057963e-16, cumulative = 6.454398107406463e-13
DILUPBiCG:  Solving for k, Initial residual = 0.09963055187479329, Final residual = 1.113130488383612e-17, No Iterations 3
ExecutionTime = 189.2 s  ClockTime = 303 s

Courant Number mean: 7.332882698853577e-09 max: 0.007008909706446893
deltaT = 4.101862702460016e-07
Time = 2.45512e-06

PIMPLE: iteration 1
diagonal:  Solving for rho, Initial residual = 0, Final residual = 0, No Iterations 0
DILUPBiCG:  Solving for Ux, Initial residual = 0.1588222499048301, Final residual = 1.794876148634784e-19, No Iterations 3
DILUPBiCG:  Solving for Uy, Initial residual = 0.1588222499295356, Final residual = 1.804558127299518e-17, No Iterations 3
DILUPBiCG:  Solving for Uz, Initial residual = 0.04574442795099858, Final residual = 4.16554888208544e-17, No Iterations 3
DILUPBiCG:  Solving for e, Initial residual = 0.04433566621859777, Final residual = 1.982644860242166e-17, No Iterations 3
DILUPBiCG:  Solving for p, Initial residual = 0.04556973150892821, Final residual = 2.538651820622794e-06, No Iterations 1
pEqnloop: 0
diagonal:  Solving for rho, Initial residual = 0, Final residual = 0, No Iterations 0
time step continuity errors : sum local = 1.588957214505251e-12, global = 5.119940195762838e-13, cumulative = 1.15743383031693e-12
DILUPBiCG:  Solving for p, Initial residual = 2.746696665384669e-06, Final residual = 3.818664626893552e-14, No Iterations 2
pEqnloop: 1
diagonal:  Solving for rho, Initial residual = 0, Final residual = 0, No Iterations 0
time step continuity errors : sum local = 1.890074664694917e-16, global = -1.70960928242785e-16, cumulative = 1.157262869388687e-12
DILUPBiCG:  Solving for k, Initial residual = 0.09933265615022024, Final residual = 4.109727298752154e-17, No Iterations 3
ExecutionTime = 196.16 s  ClockTime = 314 s

Courant Number mean: 8.914965514323585e-09 max: 0.008420730813754941
deltaT = 4.922235242952019e-07
Time = 2.94734e-06

PIMPLE: iteration 1
diagonal:  Solving for rho, Initial residual = 0, Final residual = 0, No Iterations 0
[...]
time step continuity errors : sum local = 1.701412234633536e-16, global = -6.605519563365023e-17, cumulative = -1.162890311365516e-08
DILUPBiCG:  Solving for k, Initial residual = 0.00884221792050865, Final residual = 4.346326427130984e-13, No Iterations 5
ExecutionTime = 2205.26 s  ClockTime = 11014 s

APIO_IO_STEP = 71.2516571879969
Courant Number mean: 1.996899501796176e-06 max: 0.20121185537763
deltaT = 2.781576248915653e-06
Time = 0.000159548

PIMPLE: iteration 1
diagonal:  Solving for rho, Initial residual = 0, Final residual = 0, No Iterations 0
DILUPBiCG:  Solving for Ux, Initial residual = 0.01750878652558297, Final residual = 3.459181882101958e-13, No Iterations 5
DILUPBiCG:  Solving for Uy, Initial residual = 0.01750922532680521, Final residual = 2.623440363462047e-13, No Iterations 5
DILUPBiCG:  Solving for Uz, Initial residual = 0.00856774402085249, Final residual = 2.285393278689303e-13, No Iterations 5
DILUPBiCG:  Solving for e, Initial residual = 0.01171565861424046, Final residual = 2.091330636073745e-13, No Iterations 5
DILUPBiCG:  Solving for p, Initial residual = 0.01501968962732252, Final residual = 2.411593423865095e-05, No Iterations 1
pEqnloop: 0
diagonal:  Solving for rho, Initial residual = 0, Final residual = 0, No Iterations 0
time step continuity errors : sum local = 9.136330173738697e-10, global = -2.928851300347424e-10, cumulative = -1.19217882436899e-08
DILUPBiCG:  Solving for p, Initial residual = 0.0001170283844551602, Final residual = 2.387361518115635e-14, No Iterations 5
pEqnloop: 1
diagonal:  Solving for rho, Initial residual = 0, Final residual = 0, No Iterations 0
time step continuity errors : sum local = 1.824123068514971e-16, global = 9.615871023286938e-17, cumulative = -1.192178814753119e-08
DILUPBiCG:  Solving for k, Initial residual = 0.008843876889378193, Final residual = 7.928490306811893e-14, No Iterations 5
ExecutionTime = 2247.13 s  ClockTime = 11144 s

APIO_IO_STEP = 73.94523408400164
Courant Number mean: 2.039671008183169e-06 max: 0.2009362206154746
deltaT = 2.768616071702329e-06
Time = 0.000162316

PIMPLE: iteration 1
diagonal:  Solving for rho, Initial residual = 0, Final residual = 0, No Iterations 0
DILUPBiCG:  Solving for Ux, Initial residual = 0.01720746462982906, Final residual = 2.634471814375055e-13, No Iterations 5
DILUPBiCG:  Solving for Uy, Initial residual = 0.01720757884142286, Final residual = 2.601778941197781e-13, No Iterations 5
DILUPBiCG:  Solving for Uz, Initial residual = 0.008447732685111649, Final residual = 2.151351984626959e-13, No Iterations 5
DILUPBiCG:  Solving for e, Initial residual = 0.01151394402321356, Final residual = 6.749713644070009e-14, No Iterations 5
DILUPBiCG:  Solving for p, Initial residual = 0.01490962624795882, Final residual = 2.373801828130453e-05, No Iterations 1
pEqnloop: 0
diagonal:  Solving for rho, Initial residual = 0, Final residual = 0, No Iterations 0
time step continuity errors : sum local = 9.164058083952494e-10, global = -3.004180148602262e-10, cumulative = -1.222220616239142e-08
DILUPBiCG:  Solving for p, Initial residual = 0.0001032749992038811, Final residual = 1.023967256642504e-14, No Iterations 5
pEqnloop: 1
diagonal:  Solving for rho, Initial residual = 0, Final residual = 0, No Iterations 0
time step continuity errors : sum local = 1.634144456569184e-16, global = -3.424617619147008e-17, cumulative = -1.222220619663759e-08
DILUPBiCG:  Solving for k, Initial residual = 0.008891817880708589, Final residual = 7.765327899988946e-13, No Iterations 5
ExecutionTime = 2296.04 s  ClockTime = 11282 s

APIO_IO_STEP = 66.9828283229981
Courant Number mean: 2.084729179729457e-06 max: 0.2009184060968344
deltaT = 2.755960616537996e-06
Time = 0.000165072

PIMPLE: iteration 1
diagonal:  Solving for rho, Initial residual = 0, Final residual = 0, No Iterations 0
DILUPBiCG:  Solving for Ux, Initial residual = 0.01688678099201965, Final residual = 1.998103284511093e-13, No Iterations 5
DILUPBiCG:  Solving for Uy, Initial residual = 0.01688623668450916, Final residual = 2.55384180793408e-13, No Iterations 5
DILUPBiCG:  Solving for Uz, Initial residual = 0.008309696233525628, Final residual = 2.038525137815377e-13, No Iterations 5
DILUPBiCG:  Solving for e, Initial residual = 0.01144531767375713, Final residual = 5.699229601924356e-14, No Iterations 5
DILUPBiCG:  Solving for p, Initial residual = 0.01488468239940516, Final residual = 2.291889395757232e-05, No Iterations 1
pEqnloop: 0
diagonal:  Solving for rho, Initial residual = 0, Final residual = 0, No Iterations 0
time step continuity errors : sum local = 9.012236025442258e-10, global = -2.90373937346339e-10, cumulative = -1.251258013398393e-08
DILUPBiCG:  Solving for p, Initial residual = 9.609555416513623e-05, Final residual = 5.306766640874825e-15, No Iterations 5
pEqnloop: 1
diagonal:  Solving for rho, Initial residual = 0, Final residual = 0, No Iterations 0
time step continuity errors : sum local = 1.622844845522968e-16, global = 1.84857142049015e-17, cumulative = -1.251258011549822e-08
DILUPBiCG:  Solving for k, Initial residual = 0.008970831052246799, Final residual = 2.635225751419926e-13, No Iterations 5
ExecutionTime = 2341.89 s  ClockTime = 11424 s

APIO_IO_STEP = 78.86815322899747
Courant Number mean: 2.128934951689189e-06 max: 0.2009813251571514
deltaT = 2.742504174836184e-06
Time = 0.000167815

PIMPLE: iteration 1
diagonal:  Solving for rho, Initial residual = 0, Final residual = 0, No Iterations 0
DILUPBiCG:  Solving for Ux, Initial residual = 0.01656899964873074, Final residual = 1.507587964732119e-13, No Iterations 5
DILUPBiCG:  Solving for Uy, Initial residual = 0.01656837678078492, Final residual = 2.42817927642732e-13, No Iterations 5
DILUPBiCG:  Solving for Uz, Initial residual = 0.008170212828552272, Final residual = 1.938439263280769e-13, No Iterations 5
DILUPBiCG:  Solving for e, Initial residual = 0.01139187014242384, Final residual = 1.874940478977326e-14, No Iterations 5
DILUPBiCG:  Solving for p, Initial residual = 0.01479486125037167, Final residual = 2.186919702014752e-05, No Iterations 1
pEqnloop: 0
diagonal:  Solving for rho, Initial residual = 0, Final residual = 0, No Iterations 0
time step continuity errors : sum local = 8.755940825422036e-10, global = -2.661533086644753e-10, cumulative = -1.277873342416269e-08
DILUPBiCG:  Solving for p, Initial residual = 0.0001161760537924319, Final residual = 8.272976286800362e-13, No Iterations 4
pEqnloop: 1
diagonal:  Solving for rho, Initial residual = 0, Final residual = 0, No Iterations 0
time step continuity errors : sum local = 1.978159356534437e-16, global = -3.875241083389577e-17, cumulative = -1.277873346291511e-08
DILUPBiCG:  Solving for k, Initial residual = 0.009033799382306484, Final residual = 1.351877400686037e-14, No Iterations 6
ExecutionTime = 2361.12 s  ClockTime = 11549 s

APIO_IO_STEP = 70.97842139500062
Courant Number mean: 2.171120030659484e-06 max: 0.200160755938332
deltaT = 2.740301576080294e-06
Time = 0.000170555

PIMPLE: iteration 1
diagonal:  Solving for rho, Initial residual = 0, Final residual = 0, No Iterations 0
DILUPBiCG:  Solving for Ux, Initial residual = 0.01634377712930261, Final residual = 1.187078703872591e-13, No Iterations 5
DILUPBiCG:  Solving for Uy, Initial residual = 0.01634355924093385, Final residual = 2.319171346295946e-13, No Iterations 5
DILUPBiCG:  Solving for Uz, Initial residual = 0.008071722968715181, Final residual = 1.8909689491115e-13, No Iterations 5
DILUPBiCG:  Solving for e, Initial residual = 0.01129216095482783, Final residual = 8.833357515641621e-13, No Iterations 4
DILUPBiCG:  Solving for p, Initial residual = 0.01468346954944505, Final residual = 2.148719795355432e-05, No Iterations 1
pEqnloop: 0
diagonal:  Solving for rho, Initial residual = 0, Final residual = 0, No Iterations 0
time step continuity errors : sum local = 8.757247356320993e-10, global = -2.615404560527419e-10, cumulative = -1.304027391896785e-08
DILUPBiCG:  Solving for p, Initial residual = 0.0001138581569104729, Final residual = 6.841384890216668e-13, No Iterations 4
pEqnloop: 1
diagonal:  Solving for rho, Initial residual = 0, Final residual = 0, No Iterations 0
time step continuity errors : sum local = 2.175941836351631e-16, global = 1.211453331643272e-16, cumulative = -1.304027379782251e-08
DILUPBiCG:  Solving for k, Initial residual = 0.009101842133683645, Final residual = 3.632467912960283e-13, No Iterations 5
ExecutionTime = 2391.59 s  ClockTime = 11674 s

APIO_IO_STEP = 71.88385042799928
Courant Number mean: 2.222251236477016e-06 max: 0.1996605519956457
deltaT = 2.744960432784982e-06
Time = 0.0001733

PIMPLE: iteration 1
diagonal:  Solving for rho, Initial residual = 0, Final residual = 0, No Iterations 0
DILUPBiCG:  Solving for Ux, Initial residual = 0.01620154691397256, Final residual = 9.840009493982338e-14, No Iterations 5
DILUPBiCG:  Solving for Uy, Initial residual = 0.01620153739759992, Final residual = 2.252012496942888e-13, No Iterations 5
DILUPBiCG:  Solving for Uz, Initial residual = 0.008008218388246946, Final residual = 1.881717037773749e-13, No Iterations 5
DILUPBiCG:  Solving for e, Initial residual = 0.01123410778262759, Final residual = 9.520258843688584e-13, No Iterations 4
DILUPBiCG:  Solving for p, Initial residual = 0.01462969666896765, Final residual = 2.132886032150517e-05, No Iterations 1
pEqnloop: 0
diagonal:  Solving for rho, Initial residual = 0, Final residual = 0, No Iterations 0
time step continuity errors : sum local = 8.8470237167932e-10, global = -2.677972367119153e-10, cumulative = -1.330807103453443e-08
DILUPBiCG:  Solving for p, Initial residual = 9.873135472731397e-05, Final residual = 8.230927742962713e-13, No Iterations 4
pEqnloop: 1
diagonal:  Solving for rho, Initial residual = 0, Final residual = 0, No Iterations 0
time step continuity errors : sum local = 2.136603349475257e-16, global = 9.519477511062889e-17, cumulative = -1.330807093933965e-08
DILUPBiCG:  Solving for k, Initial residual = 0.009159103089356737, Final residual = 4.649606051231267e-15, No Iterations 6
ExecutionTime = 2435.69 s  ClockTime = 11811 s

APIO_IO_STEP = 73.92145074700056
Courant Number mean: 2.280045291217475e-06 max: 0.1995639764358918
deltaT = 2.750957845006424e-06
Time = 0.000176051

PIMPLE: iteration 1
diagonal:  Solving for rho, Initial residual = 0, Final residual = 0, No Iterations 0
DILUPBiCG:  Solving for Ux, Initial residual = 0.01607374831555027, Final residual = 8.54723525425189e-14, No Iterations 5
DILUPBiCG:  Solving for Uy, Initial residual = 0.01607333788949905, Final residual = 2.21358690460638e-13, No Iterations 5
DILUPBiCG:  Solving for Uz, Initial residual = 0.007961871597518811, Final residual = 1.888867130574845e-13, No Iterations 5
DILUPBiCG:  Solving for e, Initial residual = 0.01117020251881337, Final residual = 5.481722686894147e-13, No Iterations 4
DILUPBiCG:  Solving for p, Initial residual = 0.01457799379627529, Final residual = 2.120723642019664e-05, No Iterations 1
pEqnloop: 0
diagonal:  Solving for rho, Initial residual = 0, Final residual = 0, No Iterations 0
time step continuity errors : sum local = 8.951062324720382e-10, global = -2.846700924823178e-10, cumulative = -1.359274103182197e-08
DILUPBiCG:  Solving for p, Initial residual = 0.0001033577753197578, Final residual = 1.257610063118822e-14, No Iterations 5
pEqnloop: 1
diagonal:  Solving for rho, Initial residual = 0, Final residual = 0, No Iterations 0
time step continuity errors : sum local = 1.915451152702347e-16, global = 1.249877094531106e-16, cumulative = -1.359274090683426e-08
DILUPBiCG:  Solving for k, Initial residual = 0.009186980710645809, Final residual = 2.898177392775524e-13, No Iterations 5
ExecutionTime = 2461.07 s  ClockTime = 11933 s

APIO_IO_STEP = 68.00734497000303
Courant Number mean: 2.339883734611314e-06 max: 0.1996182680501034
deltaT = 2.756218528372294e-06
Time = 0.000178807

PIMPLE: iteration 1
diagonal:  Solving for rho, Initial residual = 0, Final residual = 0, No Iterations 0
DILUPBiCG:  Solving for Ux, Initial residual = 0.01592644694157094, Final residual = 7.717365008878409e-14, No Iterations 5
DILUPBiCG:  Solving for Uy, Initial residual = 0.01592590466361226, Final residual = 2.204088810538425e-13, No Iterations 5
DILUPBiCG:  Solving for Uz, Initial residual = 0.007905056296239235, Final residual = 1.878959671498506e-13, No Iterations 5
DILUPBiCG:  Solving for e, Initial residual = 0.0111713323735908, Final residual = 3.716994246898002e-13, No Iterations 4
DILUPBiCG:  Solving for p, Initial residual = 0.01458209344539505, Final residual = 2.075062332505597e-05, No Iterations 1
pEqnloop: 0
diagonal:  Solving for rho, Initial residual = 0, Final residual = 0, No Iterations 0
time step continuity errors : sum local = 8.910371653118874e-10, global = -2.776852995676991e-10, cumulative = -1.387042620640196e-08
DILUPBiCG:  Solving for p, Initial residual = 9.742644985228181e-05, Final residual = 8.055653888992485e-13, No Iterations 4
pEqnloop: 1
diagonal:  Solving for rho, Initial residual = 0, Final residual = 0, No Iterations 0
time step continuity errors : sum local = 2.099905619972091e-16, global = -7.91001755477104e-17, cumulative = -1.387042628550213e-08
DILUPBiCG:  Solving for k, Initial residual = 0.009189667232473534, Final residual = 7.892594745129108e-14, No Iterations 5
ExecutionTime = 2476.07 s  ClockTime = 12056 s

APIO_IO_STEP = 68.66359212499992
Courant Number mean: 2.399502927026013e-06 max: 0.1994722437264401
deltaT = 2.763510829258239e-06
Time = 0.000181571

PIMPLE: iteration 1
diagonal:  Solving for rho, Initial residual = 0, Final residual = 0, No Iterations 0
DILUPBiCG:  Solving for Ux, Initial residual = 0.01578101994815819, Final residual = 7.242163603224991e-14, No Iterations 5
DILUPBiCG:  Solving for Uy, Initial residual = 0.01578055836354789, Final residual = 2.241633495910488e-13, No Iterations 5
DILUPBiCG:  Solving for Uz, Initial residual = 0.007826490165484035, Final residual = 1.85698666713327e-13, No Iterations 5
DILUPBiCG:  Solving for e, Initial residual = 0.01124214931631034, Final residual = 3.010555071130134e-13, No Iterations 4
DILUPBiCG:  Solving for p, Initial residual = 0.01458820089492475, Final residual = 2.078145102217184e-05, No Iterations 1
pEqnloop: 0
diagonal:  Solving for rho, Initial residual = 0, Final residual = 0, No Iterations 0
time step continuity errors : sum local = 9.076461780557237e-10, global = -2.813300764014747e-10, cumulative = -1.415175636190361e-08
DILUPBiCG:  Solving for p, Initial residual = 0.0001012032451229736, Final residual = 9.495579471472401e-13, No Iterations 4
pEqnloop: 1
diagonal:  Solving for rho, Initial residual = 0, Final residual = 0, No Iterations 0
time step continuity errors : sum local = 2.282643081306922e-16, global = -1.106212831364351e-16, cumulative = -1.415175647252489e-08
DILUPBiCG:  Solving for k, Initial residual = 0.009177250680475459, Final residual = 2.016035680597139e-14, No Iterations 5
ExecutionTime = 2492.48 s  ClockTime = 12192 s

APIO_IO_STEP = 81.18945840599918
Courant Number mean: 2.461568154553294e-06 max: 0.1990696378439998
deltaT = 2.776426238765593e-06
Time = 0.000184347

PIMPLE: iteration 1
diagonal:  Solving for rho, Initial residual = 0, Final residual = 0, No Iterations 0
DILUPBiCG:  Solving for Ux, Initial residual = 0.01565976822829728, Final residual = 7.025459725036617e-14, No Iterations 5
DILUPBiCG:  Solving for Uy, Initial residual = 0.01565957036550326, Final residual = 2.337290606177795e-13, No Iterations 5
DILUPBiCG:  Solving for Uz, Initial residual = 0.007787952969593028, Final residual = 1.837811871859286e-13, No Iterations 5
DILUPBiCG:  Solving for e, Initial residual = 0.01121657727907776, Final residual = 3.252600997706642e-13, No Iterations 4
DILUPBiCG:  Solving for p, Initial residual = 0.01452050554073081, Final residual = 2.10155208152727e-05, No Iterations 1
pEqnloop: 0
diagonal:  Solving for rho, Initial residual = 0, Final residual = 0, No Iterations 0
time step continuity errors : sum local = 9.33405712980147e-10, global = -2.925076852440718e-10, cumulative = -1.444426415776897e-08
DILUPBiCG:  Solving for p, Initial residual = 9.999373005458316e-05, Final residual = 9.805260590838671e-13, No Iterations 4
pEqnloop: 1
diagonal:  Solving for rho, Initial residual = 0, Final residual = 0, No Iterations 0
time step continuity errors : sum local = 2.039608802912697e-16, global = 2.646780085204831e-17, cumulative = -1.444426413130116e-08
DILUPBiCG:  Solving for k, Initial residual = 0.009160991508694568, Final residual = 2.538458065724888e-14, No Iterations 5
ExecutionTime = 2514.93 s  ClockTime = 12322 s

APIO_IO_STEP = 73.25305013000252
Courant Number mean: 2.529860771421017e-06 max: 0.1984620996198965
deltaT = 2.797941011490974e-06
Time = 0.000187145

PIMPLE: iteration 1
diagonal:  Solving for rho, Initial residual = 0, Final residual = 0, No Iterations 0
DILUPBiCG:  Solving for Ux, Initial residual = 0.01562102299042181, Final residual = 7.01904364932944e-14, No Iterations 5
DILUPBiCG:  Solving for Uy, Initial residual = 0.01562082453407989, Final residual = 2.503202653444023e-13, No Iterations 5
DILUPBiCG:  Solving for Uz, Initial residual = 0.007790747830464875, Final residual = 1.839663300627698e-13, No Iterations 5
DILUPBiCG:  Solving for e, Initial residual = 0.01124807834110474, Final residual = 1.788764990621818e-14, No Iterations 5
DILUPBiCG:  Solving for p, Initial residual = 0.0146298127309629, Final residual = 2.123159577438177e-05, No Iterations 1
pEqnloop: 0
diagonal:  Solving for rho, Initial residual = 0, Final residual = 0, No Iterations 0
time step continuity errors : sum local = 9.588398172777951e-10, global = -2.995241971180047e-10, cumulative = -1.474378832841917e-08
DILUPBiCG:  Solving for p, Initial residual = 9.894874132281555e-05, Final residual = 9.860887671747165e-13, No Iterations 4
pEqnloop: 1
diagonal:  Solving for rho, Initial residual = 0, Final residual = 0, No Iterations 0
time step continuity errors : sum local = 2.106240723503202e-16, global = 2.906559401046646e-17, cumulative = -1.474378829935357e-08
DILUPBiCG:  Solving for k, Initial residual = 0.009179772282912488, Final residual = 2.240143642003815e-14, No Iterations 5
ExecutionTime = 2539.1 s  ClockTime = 12437 s

APIO_IO_STEP = 73.11587522300215
Courant Number mean: 2.607550527148367e-06 max: 0.2007293305383781
deltaT = 2.7877749644126e-06
Time = 0.000189933

PIMPLE: iteration 1
diagonal:  Solving for rho, Initial residual = 0, Final residual = 0, No Iterations 0
DILUPBiCG:  Solving for Ux, Initial residual = 0.01545009081728938, Final residual = 6.656171416517345e-14, No Iterations 5
DILUPBiCG:  Solving for Uy, Initial residual = 0.01544963289083071, Final residual = 2.511965431377323e-13, No Iterations 5
DILUPBiCG:  Solving for Uz, Initial residual = 0.007700143540007949, Final residual = 1.744794701353223e-13, No Iterations 5
DILUPBiCG:  Solving for e, Initial residual = 0.01123422344230923, Final residual = 1.76686251107921e-14, No Iterations 5
DILUPBiCG:  Solving for p, Initial residual = 0.01452895604074247, Final residual = 2.019578951253844e-05, No Iterations 1
pEqnloop: 0
diagonal:  Solving for rho, Initial residual = 0, Final residual = 0, No Iterations 0
time step continuity errors : sum local = 9.272308136828902e-10, global = -2.73116435853988e-10, cumulative = -1.501690473520756e-08
DILUPBiCG:  Solving for p, Initial residual = 0.0001006384341409137, Final residual = 1.368944823412586e-14, No Iterations 5
pEqnloop: 1
diagonal:  Solving for rho, Initial residual = 0, Final residual = 0, No Iterations 0
time step continuity errors : sum local = 1.644768626459123e-16, global = 2.08675181481386e-17, cumulative = -1.501690471434005e-08
DILUPBiCG:  Solving for k, Initial residual = 0.009120968354419506, Final residual = 6.757386627440562e-15, No Iterations 5
ExecutionTime = 2567.31 s  ClockTime = 12567 s

APIO_IO_STEP = 81.06767270599994
