/*---------------------------------------------------------------------------*\
| =========                 |                                                 |
| \\      /  F ield         | OpenFOAM: The Open Source CFD Toolbox           |
|  \\    /   O peration     | Version:  v1912                                 |
|   \\  /    A nd           | Website:  www.openfoam.com                      |
|    \\/     M anipulation  |                                                 |
\*---------------------------------------------------------------------------*/
Build  : _f3950763fe-20191219 OPENFOAM=1912
Arch   : "LSB;label=32;scalar=64"
Exec   : rhoPimpleFoam_METRICS -parallel
Date   : Oct 27 2020
Time   : 13:55:32
Host   : r42c4t6n2
PID    : 109333
I/O    : uncollated
Case   : /lustre/cray/ws9/2/ws/hpcmcast-ashee2/HAWK/apio_64M/512
nProcs : 512
Hosts  :
(
    (r42c4t6n2 128)
    (r42c4t6n3 128)
    (r42c4t6n4 128)
    (r43c4t6n3 128)
)
Pstream initialized with:
    floatTransfer      : 0
    nProcsSimpleSum    : 0
    commsType          : nonBlocking
    polling iterations : 0
trapFpe: Floating point exception trapping enabled (FOAM_SIGFPE).
fileModificationChecking : Monitoring run-time modified files using timeStampMaster (fileModificationSkew 10)
allowSystemOperations : Allowing user-supplied system call operations

// * * * * * * * * * * * * * * * * * * * * * * * * * * * * * * * * * * * * * //
Create time

Create mesh for time = 0


PIMPLE: Operating solver in PISO mode

Reading thermophysical properties

Selecting thermodynamics package 
{
    type            hePsiThermo;
    mixture         pureMixture;
    transport       const;
    thermo          eConst;
    equationOfState perfectGas;
    specie          specie;
    energy          sensibleInternalEnergy;
}

Reading field U

Reading/calculating face flux field phi

--> FOAM Warning : 
    From function Foam::pressureControl::pressureControl(const volScalarField&, const volScalarField&, const Foam::dictionary&, bool)
    in file cfdTools/general/pressureControl/pressureControl.C at line 123
    Reading "/lustre/cray/ws9/2/ws/hpcmcast-ashee2/HAWK/apio_64M/512/system/fvSolution.PIMPLE"
    'rhoMax' specified rather than 'pMax' or 'pMaxFactor'
    This is supported for backward-compatibility but 'pMax' or 'pMaxFactor' are more reliable.
--> FOAM Warning : 
    From function Foam::pressureControl::pressureControl(const volScalarField&, const volScalarField&, const Foam::dictionary&, bool)
    in file cfdTools/general/pressureControl/pressureControl.C at line 178
    Reading "/lustre/cray/ws9/2/ws/hpcmcast-ashee2/HAWK/apio_64M/512/system/fvSolution.PIMPLE"
    'rhoMin' specified rather than 'pMin' or 'pMinFactor'
    This is supported for backward-compatibility but 'pMin' or 'pMinFactor' are more reliable.
pressureControl
    pMax 1726187.557059955
    pMin 4747.015781914877

Creating turbulence model

Selecting turbulence model type LES
Selecting LES turbulence model kEqn
Selecting LES delta type cubeRootVol
LES
{
    LESModel        kEqn;
    turbulence      on;
    printCoeffs     on;
    delta           cubeRootVol;
    cubeRootVolCoeffs
    {
        deltaCoeff      1;
    }
    PrandtlCoeffs
    {
        delta           cubeRootVol;
        cubeRootVolCoeffs
        {
            deltaCoeff      1;
        }
        smoothCoeffs
        {
            delta           cubeRootVol;
            cubeRootVolCoeffs
            {
                deltaCoeff      1;
            }
            maxDeltaRatio   1.1;
        }
        Cdelta          0.158;
    }
    vanDriestCoeffs
    {
        delta           cubeRootVol;
        cubeRootVolCoeffs
        {
            deltaCoeff      1;
        }
        smoothCoeffs
        {
            delta           cubeRootVol;
            cubeRootVolCoeffs
            {
                deltaCoeff      1;
            }
            maxDeltaRatio   1.1;
        }
        Aplus           26;
        Cdelta          0.158;
    }
    smoothCoeffs
    {
        delta           cubeRootVol;
        cubeRootVolCoeffs
        {
            deltaCoeff      1;
        }
        maxDeltaRatio   1.1;
    }
    Ce              1.048;
    Ck              0.094;
}

Creating field dpdt

Creating field kinetic energy K

No MRF models present

procNo = 19
procNo = 20
procNo = 21
procNo = 22
procNo = 23
procNo = 24
procNo = 25
procNo = 26
procNo = 27
procNo = 28
procNo = 29
procNo = 30
procNo = 31
procNo = 32
procNo = 33
procNo = 34
procNo = 35
procNo = 36
procNo = 37
procNo = 38
procNo = 39
procNo = 40
procNo = 41
procNo = 42
procNo = 43
procNo = 44
procNo = 45
procNo = 46
procNo = 47
procNo = 48
procNo = 49
procNo = 50
procNo = 51
procNo = 52
procNo = 53
procNo = 54
procNo = 55
procNo = 56
procNo = 57
procNo = 58
procNo = 59
procNo = 60
procNo = 61
procNo = 62
procNo = 63
procNo = 64
procNo = 65
procNo = 66
procNo = 67
procNo = 68
procNo = 69
procNo = 70
procNo = 71
procNo = 72
procNo = 73
procNo = 74
procNo = 75
procNo = 76
procNo = 77
procNo = 78
procNo = 79
procNo = 80
procNo = 81
procNo = 82
procNo = 83
procNo = 84
procNo = 85
procNo = 86
procNo = 87
procNo = 88
procNo = 89
procNo = 90
procNo = 91
procNo = 92
procNo = 93
procNo = 94
procNo = 95
procNo = 96
procNo = 97
procNo = 98
procNo = 99
procNo = 100
procNo = 101
procNo = 102
procNo = 103
procNo = 104
procNo = 105
procNo = 106
procNo = 107
procNo = 108
procNo = 109
procNo = 110
procNo = 111
procNo = 112
procNo = 113
procNo = 114
procNo = 115
procNo = 116
procNo = 117
procNo = 118
procNo = 119
procNo = 120
procNo = 121
procNo = 122
procNo = 123
procNo = 124
procNo = 125
procNo = 126
procNo = 127
No finite volume options present
procNo = 0
masterNo = 0
procNo = 1
procNo = 2
procNo = 3
procNo = 4
procNo = 5
procNo = 6
procNo = 7
procNo = 8
procNo = 9
procNo = 10
procNo = 11
procNo = 12
procNo = 13
procNo = 14
procNo = 15
procNo = 16
procNo = 17
procNo = 18
procNo = 384
procNo = 128
procNo = 385
procNo = 129
procNo = 386
procNo = 130
procNo = 387
procNo = 256
procNo = 131
procNo = 388
procNo = 257
procNo = 389
procNo = 258
procNo = 132
procNo = 390
procNo = 259
procNo = 133
procNo = 391
procNo = 260
procNo = 134
procNo = 392
procNo = 261
procNo = 135
procNo = 393
procNo = 262
procNo = 136
procNo = 394
procNo = 263
procNo = 137
procNo = 264
procNo = 138
procNo = 265
procNo = 139
procNo = 395
procNo = 140
procNo = 396
procNo = 266
procNo = 141
procNo = 397
procNo = 267
procNo = 142
procNo = 398
procNo = 268
procNo = 143
procNo = 399
procNo = 269
procNo = 144
procNo = 400
procNo = 270
procNo = 145
procNo = 401
procNo = 271
procNo = 146
procNo = 402
procNo = 272
procNo = 147
procNo = 403
procNo = 273
procNo = 148
procNo = 404
procNo = 274
procNo = 149
procNo = 405
procNo = 275
procNo = 150
procNo = 406
procNo = 276
procNo = 151
procNo = 407
procNo = 277
procNo = 152
procNo = 408
procNo = 278
procNo = 153
procNo = 409
procNo = 279
procNo = 154
procNo = 410
procNo = 280
procNo = 155
procNo = 411
procNo = 281
procNo = 156
procNo = 412
procNo = 282
procNo = 157
procNo = 413
procNo = 283
procNo = 158
procNo = 414
procNo = 284
procNo = 159
procNo = 415
procNo = 285
procNo = 160
procNo = 416
procNo = 286
procNo = 161
procNo = 417
procNo = 287
procNo = 162
procNo = 418
procNo = 288
procNo = 163
procNo = 419
procNo = 289
procNo = 164
procNo = 420
procNo = 290
procNo = 165
procNo = 421
procNo = 291
procNo = 422
procNo = 292
procNo = 166
procNo = 423
procNo = 293
procNo = 167
procNo = 424
procNo = 294
procNo = 168
procNo = 425
procNo = 295
procNo = 169
procNo = 426
procNo = 296
procNo = 170
procNo = 427
procNo = 297
procNo = 171
procNo = 428
procNo = 298
procNo = 172
procNo = 429
procNo = 299
procNo = 173
procNo = 430
procNo = 300
procNo = 174
procNo = 431
procNo = 301
procNo = 175
procNo = 432
procNo = 302
procNo = 176
procNo = 433
procNo = 303
procNo = 177
procNo = 434
procNo = 304
procNo = 178
procNo = 435
procNo = 305
procNo = 179
procNo = 436
procNo = 306
procNo = 180
procNo = 437
procNo = 307
procNo = 181
procNo = 438
procNo = 308
procNo = 182
procNo = 439
procNo = 309
procNo = 183
procNo = 440
procNo = 310
procNo = 184
procNo = 441
procNo = 311
procNo = 185
procNo = 442
procNo = 312
procNo = 186
procNo = 443
procNo = 313
procNo = 187
procNo = 444
procNo = 314
procNo = 188
procNo = 445
procNo = 315
procNo = 189
procNo = 446
procNo = 316
procNo = 190
procNo = 447
procNo = 317
procNo = 191
procNo = 448
procNo = 318
procNo = 192
procNo = 449
procNo = 319
procNo = 193
procNo = 450
procNo = 320
procNo = 194
procNo = 451
procNo = 321
procNo = 195
procNo = 452
procNo = 322
procNo = 196
procNo = 453
procNo = 323
procNo = 197
procNo = 454
procNo = 324
procNo = 198
procNo = 455
procNo = 325
procNo = 199
procNo = 456
procNo = 326
procNo = 200
procNo = 457
procNo = 327
procNo = 201
procNo = 458
procNo = 328
procNo = 202
procNo = 459
procNo = 329
procNo = 203
procNo = 460
procNo = 330
procNo = 204
procNo = 461
procNo = 331
procNo = 205
procNo = 462
procNo = 332
procNo = 206
procNo = 463
procNo = 333
procNo = 207
procNo = 464
procNo = 334
procNo = 208
procNo = 465
procNo = 335
procNo = 209
procNo = 466
procNo = 336
procNo = 210
procNo = 467
procNo = 337
procNo = 211
procNo = 468
procNo = 338
procNo = 212
procNo = 469
procNo = 339
procNo = 213
procNo = 470
procNo = 340
procNo = 214
procNo = 471
procNo = 341
procNo = 215
procNo = 472
procNo = 342
procNo = 216
procNo = 473
procNo = 343
procNo = 217
procNo = 474
procNo = 344
procNo = 218
procNo = 475
procNo = 345
procNo = 219
procNo = 476
procNo = 346
procNo = 220
procNo = 477
procNo = 347
procNo = 221
procNo = 478
procNo = 348
procNo = 222
procNo = 479
procNo = 349
procNo = 223
procNo = 480
procNo = 350
procNo = 224
procNo = 481
procNo = 351
procNo = 225
procNo = 482
procNo = 352
procNo = 226
procNo = 483
procNo = 353
procNo = 227
procNo = 484
procNo = 354
procNo = 228
procNo = 485
procNo = 355
procNo = 229
procNo = 486
procNo = 356
procNo = 230
procNo = 487
procNo = 357
procNo = 231
procNo = 488
procNo = 358
procNo = 232
procNo = 489
procNo = 359
procNo = 233
procNo = 490
procNo = 360
procNo = 234
procNo = 491
procNo = 361
procNo = 235
procNo = 492
procNo = 362
procNo = 236
procNo = 493
procNo = 363
procNo = 237
procNo = 494
procNo = 364
procNo = 238
procNo = 495
procNo = 365
procNo = 239
procNo = 496
procNo = 366
procNo = 240
procNo = 497
procNo = 367
procNo = 241
procNo = 498
procNo = 368
procNo = 242
procNo = 499
procNo = 369
procNo = 243
procNo = 500
procNo = 370
procNo = 244
procNo = 501
procNo = 371
procNo = 245
procNo = 502
procNo = 372
procNo = 246
procNo = 503
procNo = 373
procNo = 247
procNo = 504
procNo = 374
procNo = 248
procNo = 505
procNo = 375
procNo = 249
procNo = 506
procNo = 376
procNo = 250
procNo = 507
procNo = 377
procNo = 251
procNo = 508
procNo = 378
procNo = 252
procNo = 509
procNo = 379
procNo = 253
procNo = 510
procNo = 380
procNo = 254
procNo = 511
procNo = 381
procNo = 255
procNo = 382
procNo = 383
Courant Number mean: 2.066056443481734e-11 max: 2.085039370078742e-05

Starting time loop

Courant Number mean: 2.066056443481734e-11 max: 2.085039370078742e-05
deltaT = 1.2e-09
Time = 1.2e-09

PIMPLE: iteration 1
diagonal:  Solving for rho, Initial residual = 0, Final residual = 0, No Iterations 0
DILUPBiCG:  Solving for Ux, Initial residual = 1, Final residual = 1.533815674705183e-20, No Iterations 2
DILUPBiCG:  Solving for Uy, Initial residual = 1, Final residual = 2.489753499570185e-20, No Iterations 2
DILUPBiCG:  Solving for Uz, Initial residual = 1, Final residual = 3.147611893478011e-20, No Iterations 2
DILUPBiCG:  Solving for e, Initial residual = 0.9999980137434602, Final residual = 1.265998819750335e-19, No Iterations 2
DILUPBiCG:  Solving for p, Initial residual = 0.9999992506040948, Final residual = 9.862901837212117e-10, No Iterations 1
diagonal:  Solving for rho, Initial residual = 0, Final residual = 0, No Iterations 0
time step continuity errors : sum local = 2.468274472665499e-16, global = -2.464068654257245e-16, cumulative = -2.464068654257245e-16
DILUPBiCG:  Solving for p, Initial residual = 2.345238258607319e-07, Final residual = 3.991011968699457e-16, No Iterations 1
diagonal:  Solving for rho, Initial residual = 0, Final residual = 0, No Iterations 0
time step continuity errors : sum local = 2.671916942447919e-16, global = -2.663716852832972e-16, cumulative = -5.127785507090218e-16
DILUPBiCG:  Solving for k, Initial residual = 0.9999999900961775, Final residual = 3.148793791106859e-20, No Iterations 2
ExecutionTime = 8.779999999999999 s  ClockTime = 14 s

ORIG_COMP_STEP = 2.890222553
ORIG_IO_STEP = 2.648120664
Courant Number mean: 2.479280160775187e-11 max: 2.501990921293872e-05
deltaT = 1.44e-09
Time = 2.64e-09

PIMPLE: iteration 1
diagonal:  Solving for rho, Initial residual = 0, Final residual = 0, No Iterations 0
DILUPBiCG:  Solving for Ux, Initial residual = 0.3749195243097161, Final residual = 3.487817629348647e-21, No Iterations 2
DILUPBiCG:  Solving for Uy, Initial residual = 0.3749195242866556, Final residual = 5.669107342922497e-21, No Iterations 2
DILUPBiCG:  Solving for Uz, Initial residual = 0.2307598235409012, Final residual = 4.417186711561533e-21, No Iterations 2
DILUPBiCG:  Solving for e, Initial residual = 0.2307525412135878, Final residual = 1.772299709584928e-20, No Iterations 2
DILUPBiCG:  Solving for p, Initial residual = 0.2307596382505658, Final residual = 1.372278773114269e-10, No Iterations 1
diagonal:  Solving for rho, Initial residual = 0, Final residual = 0, No Iterations 0
time step continuity errors : sum local = 5.485495952695084e-16, global = -5.484519684615779e-16, cumulative = -1.0612305191706e-15
DILUPBiCG:  Solving for p, Initial residual = 1.588226288512888e-07, Final residual = 1.952353373010185e-14, No Iterations 1
diagonal:  Solving for rho, Initial residual = 0, Final residual = 0, No Iterations 0
time step continuity errors : sum local = 4.812033152446304e-16, global = -4.811987293792149e-16, cumulative = -1.542429248549814e-15
DILUPBiCG:  Solving for k, Initial residual = 0.7612498603105426, Final residual = 1.459176250101386e-20, No Iterations 2
ExecutionTime = 11.73 s  ClockTime = 20 s

ORIG_COMP_STEP = 2.966827756999999
ORIG_IO_STEP = 3.825828824
Courant Number mean: 2.975154167278589e-11 max: 3.002308059560314e-05
deltaT = 1.728e-09
Time = 4.368e-09

PIMPLE: iteration 1
diagonal:  Solving for rho, Initial residual = 0, Final residual = 0, No Iterations 0
DILUPBiCG:  Solving for Ux, Initial residual = 0.3231076558679029, Final residual = 4.403453296623639e-21, No Iterations 2
DILUPBiCG:  Solving for Uy, Initial residual = 0.3231076566920854, Final residual = 7.185890492836088e-21, No Iterations 2
DILUPBiCG:  Solving for Uz, Initial residual = 0.1406142643037546, Final residual = 3.973041582383393e-21, No Iterations 2
DILUPBiCG:  Solving for e, Initial residual = 0.1406074988978159, Final residual = 1.58289134319492e-20, No Iterations 2
DILUPBiCG:  Solving for p, Initial residual = 0.1406135178144109, Final residual = 1.204224249903629e-10, No Iterations 1
diagonal:  Solving for rho, Initial residual = 0, Final residual = 0, No Iterations 0
time step continuity errors : sum local = 6.614419935956086e-16, global = -6.613002651700913e-16, cumulative = -2.203729513719906e-15
DILUPBiCG:  Solving for p, Initial residual = 1.008237377721138e-07, Final residual = 9.744520925272569e-14, No Iterations 1
diagonal:  Solving for rho, Initial residual = 0, Final residual = 0, No Iterations 0
time step continuity errors : sum local = 6.449407759806525e-16, global = -6.449405944202082e-16, cumulative = -2.848670108140114e-15
DILUPBiCG:  Solving for k, Initial residual = 0.5223924252550552, Final residual = 1.480487213032779e-20, No Iterations 2
ExecutionTime = 14.93 s  ClockTime = 27 s

ORIG_COMP_STEP = 3.166553612000001
ORIG_IO_STEP = 5.520613490000001
Courant Number mean: 3.570211002163484e-11 max: 3.602653054273846e-05
deltaT = 2.0736e-09
Time = 6.4416e-09

PIMPLE: iteration 1
diagonal:  Solving for rho, Initial residual = 0, Final residual = 0, No Iterations 0
DILUPBiCG:  Solving for Ux, Initial residual = 0.2861774280958732, Final residual = 5.791582349382892e-21, No Iterations 2
DILUPBiCG:  Solving for Uy, Initial residual = 0.2861774286067981, Final residual = 9.517106340153999e-21, No Iterations 2
DILUPBiCG:  Solving for Uz, Initial residual = 0.1060778808375832, Final residual = 4.509744874316755e-21, No Iterations 2
DILUPBiCG:  Solving for e, Initial residual = 0.1060696106047687, Final residual = 1.774822296425989e-20, No Iterations 2
DILUPBiCG:  Solving for p, Initial residual = 0.1060765666903587, Final residual = 1.308312377526708e-10, No Iterations 1
diagonal:  Solving for rho, Initial residual = 0, Final residual = 0, No Iterations 0
time step continuity errors : sum local = 3.550956972559471e-16, global = -3.523016928631691e-16, cumulative = -3.200971801003283e-15
DILUPBiCG:  Solving for p, Initial residual = 7.236371330333481e-08, Final residual = 7.262203446396059e-21, No Iterations 2
diagonal:  Solving for rho, Initial residual = 0, Final residual = 0, No Iterations 0
time step continuity errors : sum local = 3.843064680912151e-16, global = -3.837810204519508e-16, cumulative = -3.584752821455234e-15
DILUPBiCG:  Solving for k, Initial residual = 0.3755561811821533, Final residual = 1.606061533791764e-20, No Iterations 2
ExecutionTime = 17.81 s  ClockTime = 36 s

ORIG_COMP_STEP = 2.857749852000001
ORIG_IO_STEP = 3.406397021
Courant Number mean: 4.284290893300109e-11 max: 4.323015923841612e-05
deltaT = 2.48832e-09
Time = 8.92992e-09

PIMPLE: iteration 1
diagonal:  Solving for rho, Initial residual = 0, Final residual = 0, No Iterations 0
DILUPBiCG:  Solving for Ux, Initial residual = 0.2580115438135032, Final residual = 7.864622598536975e-21, No Iterations 2
DILUPBiCG:  Solving for Uy, Initial residual = 0.2580115443893235, Final residual = 1.305044678355911e-20, No Iterations 2
DILUPBiCG:  Solving for Uz, Initial residual = 0.08805270476323145, Final residual = 5.743978420245791e-21, No Iterations 2
DILUPBiCG:  Solving for e, Initial residual = 0.08804269132287297, Final residual = 2.222148006412206e-20, No Iterations 2
DILUPBiCG:  Solving for p, Initial residual = 0.08805069400974282, Final residual = 1.564053493410864e-10, No Iterations 1
diagonal:  Solving for rho, Initial residual = 0, Final residual = 0, No Iterations 0
time step continuity errors : sum local = 1.217348107389978e-16, global = -4.442994622162821e-17, cumulative = -3.629182767676862e-15
DILUPBiCG:  Solving for p, Initial residual = 4.04133599083272e-08, Final residual = 5.687216381995767e-14, No Iterations 1
diagonal:  Solving for rho, Initial residual = 0, Final residual = 0, No Iterations 0
time step continuity errors : sum local = 1.131339762286814e-16, global = -2.44789893887984e-17, cumulative = -3.653661757065661e-15
DILUPBiCG:  Solving for k, Initial residual = 0.2906875148661883, Final residual = 1.916164536557575e-20, No Iterations 2
ExecutionTime = 22.11 s  ClockTime = 44 s

ORIG_COMP_STEP = 4.301987318999998
ORIG_IO_STEP = 4.045032546999998
Courant Number mean: 5.141203809656123e-11 max: 5.187377896431862e-05
deltaT = 2.985983999999999e-09
Time = 1.19159e-08

PIMPLE: iteration 1
diagonal:  Solving for rho, Initial residual = 0, Final residual = 0, No Iterations 0
DILUPBiCG:  Solving for Ux, Initial residual = 0.2369026992966143, Final residual = 1.103887829312327e-20, No Iterations 2
DILUPBiCG:  Solving for Uy, Initial residual = 0.2369026996993699, Final residual = 1.854426735478306e-20, No Iterations 2
DILUPBiCG:  Solving for Uz, Initial residual = 0.07712850025545839, Final residual = 7.874827397447419e-21, No Iterations 2
DILUPBiCG:  Solving for e, Initial residual = 0.07711598310698481, Final residual = 2.981848808581172e-20, No Iterations 2
DILUPBiCG:  Solving for p, Initial residual = 0.07712538153664496, Final residual = 1.973153877744062e-10, No Iterations 1
diagonal:  Solving for rho, Initial residual = 0, Final residual = 0, No Iterations 0
time step continuity errors : sum local = 3.636573468413118e-16, global = 3.624460282685781e-16, cumulative = -3.291215728797082e-15
DILUPBiCG:  Solving for p, Initial residual = 2.654434572621353e-08, Final residual = 4.472353961459328e-14, No Iterations 1
diagonal:  Solving for rho, Initial residual = 0, Final residual = 0, No Iterations 0
time step continuity errors : sum local = 3.779869404766362e-16, global = 3.724379379039224e-16, cumulative = -2.91877779089316e-15
DILUPBiCG:  Solving for k, Initial residual = 0.2385156420698777, Final residual = 2.477761156456283e-20, No Iterations 2
ExecutionTime = 28.05 s  ClockTime = 54 s

ORIG_COMP_STEP = 5.952358402000002
ORIG_IO_STEP = 6.337094847000003
Courant Number mean: 6.169524221662372e-11 max: 6.224506732903098e-05
deltaT = 3.583180799999999e-09
Time = 1.54991e-08

PIMPLE: iteration 1
diagonal:  Solving for rho, Initial residual = 0, Final residual = 0, No Iterations 0
DILUPBiCG:  Solving for Ux, Initial residual = 0.221051906165339, Final residual = 1.599347076252112e-20, No Iterations 2
DILUPBiCG:  Solving for Uy, Initial residual = 0.2210519062762475, Final residual = 2.725599070860426e-20, No Iterations 2
DILUPBiCG:  Solving for Uz, Initial residual = 0.06989938345002955, Final residual = 1.139725488518338e-20, No Iterations 2
DILUPBiCG:  Solving for e, Initial residual = 0.06988419211391718, Final residual = 4.208924907942591e-20, No Iterations 2
DILUPBiCG:  Solving for p, Initial residual = 0.06989550723673657, Final residual = 2.57558947669783e-10, No Iterations 1
diagonal:  Solving for rho, Initial residual = 0, Final residual = 0, No Iterations 0
time step continuity errors : sum local = 3.229182462107303e-16, global = 3.2184368950696e-16, cumulative = -2.5969341013862e-15
DILUPBiCG:  Solving for p, Initial residual = 2.024383409996443e-08, Final residual = 3.234140913446386e-14, No Iterations 1
diagonal:  Solving for rho, Initial residual = 0, Final residual = 0, No Iterations 0
time step continuity errors : sum local = 3.150068230649751e-16, global = 3.142027035712249e-16, cumulative = -2.282731397814975e-15
DILUPBiCG:  Solving for k, Initial residual = 0.2042781441225922, Final residual = 3.422851544735098e-20, No Iterations 2
ExecutionTime = 36.54 s  ClockTime = 70 s

ORIG_COMP_STEP = 8.463902087000001
ORIG_IO_STEP = 12.975989941
Courant Number mean: 7.403545226835355e-11 max: 7.468909815230527e-05
deltaT = 4.299816959999999e-09
Time = 1.97989e-08

PIMPLE: iteration 1
diagonal:  Solving for rho, Initial residual = 0, Final residual = 0, No Iterations 0
DILUPBiCG:  Solving for Ux, Initial residual = 0.2090173326936102, Final residual = 2.387102380817807e-20, No Iterations 2
DILUPBiCG:  Solving for Uy, Initial residual = 0.209017332688333, Final residual = 4.1324203909634e-20, No Iterations 2
DILUPBiCG:  Solving for Uz, Initial residual = 0.06483302971320624, Final residual = 1.723075399819866e-20, No Iterations 2
DILUPBiCG:  Solving for e, Initial residual = 0.06481489854840009, Final residual = 6.18919648002679e-20, No Iterations 2
DILUPBiCG:  Solving for p, Initial residual = 0.06482824615628305, Final residual = 3.440952863453084e-10, No Iterations 1
diagonal:  Solving for rho, Initial residual = 0, Final residual = 0, No Iterations 0
time step continuity errors : sum local = 1.388670240421439e-16, global = -7.245115348951422e-17, cumulative = -2.35518255130449e-15
DILUPBiCG:  Solving for p, Initial residual = 1.7475905125533e-08, Final residual = 3.037543395631658e-14, No Iterations 1
diagonal:  Solving for rho, Initial residual = 0, Final residual = 0, No Iterations 0
time step continuity errors : sum local = 1.39244880610394e-16, global = -8.69770022468144e-17, cumulative = -2.442159553551304e-15
DILUPBiCG:  Solving for k, Initial residual = 0.1805908508014175, Final residual = 5.001541935687512e-20, No Iterations 2
ExecutionTime = 40.05 s  ClockTime = 86 s

ORIG_COMP_STEP = 3.411010806999997
ORIG_IO_STEP = 4.048720617000001
Courant Number mean: 8.884424112177376e-11 max: 8.961976116517043e-05
deltaT = 5.159780351999998e-09
Time = 2.49587e-08

PIMPLE: iteration 1
diagonal:  Solving for rho, Initial residual = 0, Final residual = 0, No Iterations 0
DILUPBiCG:  Solving for Ux, Initial residual = 0.1997579594198307, Final residual = 3.663766471214796e-20, No Iterations 2
DILUPBiCG:  Solving for Uy, Initial residual = 0.1997579593012133, Final residual = 6.44440474910582e-20, No Iterations 2
DILUPBiCG:  Solving for Uz, Initial residual = 0.06113770784895976, Final residual = 2.703811228344617e-20, No Iterations 2
DILUPBiCG:  Solving for e, Initial residual = 0.06111598369491017, Final residual = 9.43152496222802e-20, No Iterations 2
DILUPBiCG:  Solving for p, Initial residual = 0.06113196320334859, Final residual = 4.674091078122105e-10, No Iterations 1
diagonal:  Solving for rho, Initial residual = 0, Final residual = 0, No Iterations 0
time step continuity errors : sum local = 2.868550444167812e-16, global = -2.821394687102014e-16, cumulative = -2.724299022261506e-15
DILUPBiCG:  Solving for p, Initial residual = 1.211648743412649e-08, Final residual = 2.317126171560895e-14, No Iterations 1
diagonal:  Solving for rho, Initial residual = 0, Final residual = 0, No Iterations 0
time step continuity errors : sum local = 2.816725011046565e-16, global = -2.778662855244663e-16, cumulative = -3.002165307785972e-15
DILUPBiCG:  Solving for k, Initial residual = 0.1635154008148318, Final residual = 7.680254139847505e-20, No Iterations 2
ExecutionTime = 53.56 s  ClockTime = 104 s

ORIG_COMP_STEP = 13.562957017
ORIG_IO_STEP = 4.542582605999996
Courant Number mean: 1.066155798264196e-10 max: 0.000107533439730967
deltaT = 6.191736422399998e-09
Time = 3.11504e-08

PIMPLE: iteration 1
diagonal:  Solving for rho, Initial residual = 0, Final residual = 0, No Iterations 0
DILUPBiCG:  Solving for Ux, Initial residual = 0.1925419878060015, Final residual = 5.773676107573836e-20, No Iterations 2
DILUPBiCG:  Solving for Uy, Initial residual = 0.1925419876982128, Final residual = 1.030581813563142e-19, No Iterations 2
DILUPBiCG:  Solving for Uz, Initial residual = 0.05836281926641352, Final residual = 4.384972546870945e-20, No Iterations 2
DILUPBiCG:  Solving for e, Initial residual = 0.05833680032170489, Final residual = 1.485051210092893e-19, No Iterations 2
DILUPBiCG:  Solving for p, Initial residual = 0.0583559002678408, Final residual = 6.427771224236051e-10, No Iterations 1
diagonal:  Solving for rho, Initial residual = 0, Final residual = 0, No Iterations 0
time step continuity errors : sum local = 5.182601966467982e-16, global = -5.095217159005823e-16, cumulative = -3.511687023686554e-15
DILUPBiCG:  Solving for p, Initial residual = 8.177042687800495e-09, Final residual = 1.829115523146775e-14, No Iterations 1
diagonal:  Solving for rho, Initial residual = 0, Final residual = 0, No Iterations 0
time step continuity errors : sum local = 5.252810013846022e-16, global = -5.231353551972595e-16, cumulative = -4.034822378883814e-15
DILUPBiCG:  Solving for k, Initial residual = 0.1508056956125677, Final residual = 1.233973700670076e-19, No Iterations 2
ExecutionTime = 66.55 s  ClockTime = 121 s

ORIG_COMP_STEP = 12.95573940999999
ORIG_IO_STEP = 6.280190872000006
Courant Number mean: 1.279423598885736e-10 max: 0.0001290253889150598
deltaT = 7.430083706879997e-09
Time = 3.85805e-08

PIMPLE: iteration 1
diagonal:  Solving for rho, Initial residual = 0, Final residual = 0, No Iterations 0
DILUPBiCG:  Solving for Ux, Initial residual = 0.1868537995012154, Final residual = 9.329162526185675e-20, No Iterations 2
DILUPBiCG:  Solving for Uy, Initial residual = 0.1868537994264373, Final residual = 1.684402863147955e-19, No Iterations 2
DILUPBiCG:  Solving for Uz, Initial residual = 0.05623286622769399, Final residual = 7.326801157413801e-20, No Iterations 2
DILUPBiCG:  Solving for e, Initial residual = 0.05620169976749505, Final residual = 2.412214103301157e-19, No Iterations 2
DILUPBiCG:  Solving for p, Initial residual = 0.05622459153434368, Final residual = 8.922509409833981e-10, No Iterations 1
diagonal:  Solving for rho, Initial residual = 0, Final residual = 0, No Iterations 0
time step continuity errors : sum local = 2.515660690522057e-16, global = 2.217864957402194e-16, cumulative = -3.813035883143594e-15
DILUPBiCG:  Solving for p, Initial residual = 1.0188070231785e-08, Final residual = 2.630809901526335e-14, No Iterations 1
diagonal:  Solving for rho, Initial residual = 0, Final residual = 0, No Iterations 0
time step continuity errors : sum local = 2.024694982196285e-16, global = 1.716615665527274e-16, cumulative = -3.641374316590867e-15
DILUPBiCG:  Solving for k, Initial residual = 0.1411036506619754, Final residual = 2.068009760027215e-19, No Iterations 2
ExecutionTime = 73.23999999999999 s  ClockTime = 135 s

ORIG_COMP_STEP = 6.670165411000013
ORIG_IO_STEP = 3.770293015999997
Courant Number mean: 1.535362429320104e-10 max: 0.0001548093385833503
deltaT = 8.916100448255996e-09
Time = 4.74966e-08

PIMPLE: iteration 1
diagonal:  Solving for rho, Initial residual = 0, Final residual = 0, No Iterations 0
DILUPBiCG:  Solving for Ux, Initial residual = 0.1823252010014008, Final residual = 1.54334571941213e-19, No Iterations 2
DILUPBiCG:  Solving for Uy, Initial residual = 0.1823252008855478, Final residual = 2.955732769379829e-19, No Iterations 2
DILUPBiCG:  Solving for Uz, Initial residual = 0.05456982741595852, Final residual = 1.258046002643602e-19, No Iterations 2
DILUPBiCG:  Solving for e, Initial residual = 0.05453249263836273, Final residual = 4.038595930497877e-19, No Iterations 2
DILUPBiCG:  Solving for p, Initial residual = 0.05455990487999367, Final residual = 1.247570638617778e-09, No Iterations 1
diagonal:  Solving for rho, Initial residual = 0, Final residual = 0, No Iterations 0
time step continuity errors : sum local = 1.535236839954033e-16, global = -7.141548577998565e-17, cumulative = -3.712789802370852e-15
DILUPBiCG:  Solving for p, Initial residual = 9.692659546792494e-09, Final residual = 2.933011809083004e-14, No Iterations 1
diagonal:  Solving for rho, Initial residual = 0, Final residual = 0, No Iterations 0
time step continuity errors : sum local = 1.533567508807064e-16, global = -1.094790383907032e-16, cumulative = -3.822268840761555e-15
DILUPBiCG:  Solving for k, Initial residual = 0.1335466811504897, Final residual = 3.606217437467245e-19, No Iterations 2
ExecutionTime = 80.2 s  ClockTime = 146 s

ORIG_COMP_STEP = 6.960673443000005
ORIG_IO_STEP = 3.614633343000008
Courant Number mean: 1.842515163814999e-10 max: 0.0001857409471672459
deltaT = 1.069932053790719e-08
Time = 5.81959e-08

PIMPLE: iteration 1
diagonal:  Solving for rho, Initial residual = 0, Final residual = 0, No Iterations 0
DILUPBiCG:  Solving for Ux, Initial residual = 0.1786887487607138, Final residual = 2.609449968321987e-19, No Iterations 2
DILUPBiCG:  Solving for Uy, Initial residual = 0.1786887486770141, Final residual = 5.471005019920668e-19, No Iterations 2
DILUPBiCG:  Solving for Uz, Initial residual = 0.05325349149527603, Final residual = 2.214462732600222e-19, No Iterations 2
DILUPBiCG:  Solving for e, Initial residual = 0.05320876836646259, Final residual = 6.9658037550357e-19, No Iterations 2
DILUPBiCG:  Solving for p, Initial residual = 0.05324158902266654, Final residual = 1.754397030064394e-09, No Iterations 1
diagonal:  Solving for rho, Initial residual = 0, Final residual = 0, No Iterations 0
time step continuity errors : sum local = 1.699288736014134e-16, global = -9.000516968552516e-17, cumulative = -3.912274010447081e-15
DILUPBiCG:  Solving for p, Initial residual = 7.038231299668891e-09, Final residual = 2.512541655820341e-14, No Iterations 1
diagonal:  Solving for rho, Initial residual = 0, Final residual = 0, No Iterations 0
time step continuity errors : sum local = 1.516638695206385e-16, global = -1.219827137069468e-16, cumulative = -4.034256724154027e-15
DILUPBiCG:  Solving for k, Initial residual = 0.1275637938276643, Final residual = 6.528809487763187e-19, No Iterations 2
ExecutionTime = 88.26000000000001 s  ClockTime = 158 s

ORIG_COMP_STEP = 8.014032743000001
ORIG_IO_STEP = 5.253505754000003
Courant Number mean: 2.211137773193913e-10 max: 0.0002228458487620227
deltaT = 1.283918464548863e-08
Time = 7.10351e-08

PIMPLE: iteration 1
diagonal:  Solving for rho, Initial residual = 0, Final residual = 0, No Iterations 0
DILUPBiCG:  Solving for Ux, Initial residual = 0.1757467126397103, Final residual = 4.498862025084744e-19, No Iterations 2
DILUPBiCG:  Solving for Uy, Initial residual = 0.1757467126115431, Final residual = 1.053391549856806e-18, No Iterations 2
DILUPBiCG:  Solving for Uz, Initial residual = 0.0521997191709159, Final residual = 3.986344592092039e-19, No Iterations 2
DILUPBiCG:  Solving for e, Initial residual = 0.052146065922327, Final residual = 1.237267139815731e-18, No Iterations 2
DILUPBiCG:  Solving for p, Initial residual = 0.05218547290506432, Final residual = 2.478430525634684e-09, No Iterations 1
diagonal:  Solving for rho, Initial residual = 0, Final residual = 0, No Iterations 0
time step continuity errors : sum local = 4.865540436541058e-16, global = -4.280142242954853e-16, cumulative = -4.462270948449512e-15
DILUPBiCG:  Solving for p, Initial residual = 6.16370049385821e-09, Final residual = 2.606590928461918e-14, No Iterations 1
diagonal:  Solving for rho, Initial residual = 0, Final residual = 0, No Iterations 0
time step continuity errors : sum local = 4.332658835588587e-16, global = -4.332258641229776e-16, cumulative = -4.89549681257249e-15
DILUPBiCG:  Solving for k, Initial residual = 0.1227635706602406, Final residual = 1.22435670825437e-18, No Iterations 2
ExecutionTime = 91.59 s  ClockTime = 166 s

ORIG_COMP_STEP = 3.264897192000006
ORIG_IO_STEP = 1.997508687999982
Courant Number mean: 2.653544440149465e-10 max: 0.0002673531757326265
deltaT = 1.540702157458636e-08
Time = 8.64421e-08

PIMPLE: iteration 1
diagonal:  Solving for rho, Initial residual = 0, Final residual = 0, No Iterations 0
DILUPBiCG:  Solving for Ux, Initial residual = 0.1733503889717112, Final residual = 7.884496841108895e-19, No Iterations 2
DILUPBiCG:  Solving for Uy, Initial residual = 0.1733503890052936, Final residual = 2.062729442056444e-18, No Iterations 2
DILUPBiCG:  Solving for Uz, Initial residual = 0.05134783532383198, Final residual = 7.319404041588332e-19, No Iterations 2
DILUPBiCG:  Solving for e, Initial residual = 0.05128358457915039, Final residual = 2.262020862161612e-18, No Iterations 2
DILUPBiCG:  Solving for p, Initial residual = 0.05133082915445954, Final residual = 3.514252740968838e-09, No Iterations 1
diagonal:  Solving for rho, Initial residual = 0, Final residual = 0, No Iterations 0
time step continuity errors : sum local = 3.202862250089162e-16, global = 2.454773951506823e-16, cumulative = -4.650019417421808e-15
DILUPBiCG:  Solving for p, Initial residual = 7.109891475557007e-09, Final residual = 3.572564879102962e-14, No Iterations 1
diagonal:  Solving for rho, Initial residual = 0, Final residual = 0, No Iterations 0
time step continuity errors : sum local = 2.459563896700586e-16, global = 2.375521382934876e-16, cumulative = -4.41246727912832e-15
DILUPBiCG:  Solving for k, Initial residual = 0.1188695542633474, Final residual = 2.372425787220319e-18, No Iterations 2
ExecutionTime = 97.98999999999999 s  ClockTime = 175 s

ORIG_COMP_STEP = 6.409128885000001
ORIG_IO_STEP = 4.128440162000004
Courant Number mean: 3.184523155228151e-10 max: 0.0003207356037221298
deltaT = 1.848842588950363e-08
Time = 1.04931e-07

PIMPLE: iteration 1
diagonal:  Solving for rho, Initial residual = 0, Final residual = 0, No Iterations 0
DILUPBiCG:  Solving for Ux, Initial residual = 0.1713861681282145, Final residual = 1.398582630032063e-18, No Iterations 2
DILUPBiCG:  Solving for Uy, Initial residual = 0.171386168175065, Final residual = 4.116622327958016e-18, No Iterations 2
DILUPBiCG:  Solving for Uz, Initial residual = 0.05065296332207248, Final residual = 1.366615136302631e-18, No Iterations 2
DILUPBiCG:  Solving for e, Initial residual = 0.05057604357048023, Final residual = 4.253724529659284e-18, No Iterations 2
DILUPBiCG:  Solving for p, Initial residual = 0.05063268416451411, Final residual = 4.998107361721339e-09, No Iterations 1
diagonal:  Solving for rho, Initial residual = 0, Final residual = 0, No Iterations 0
time step continuity errors : sum local = 4.274245534449525e-16, global = 3.214705816062934e-16, cumulative = -4.090996697522026e-15
DILUPBiCG:  Solving for p, Initial residual = 7.856639339348045e-09, Final residual = 4.709858243873482e-14, No Iterations 1
diagonal:  Solving for rho, Initial residual = 0, Final residual = 0, No Iterations 0
time step continuity errors : sum local = 2.794233206143204e-16, global = 2.760361758342999e-16, cumulative = -3.814960521687727e-15
DILUPBiCG:  Solving for k, Initial residual = 0.1156814569300024, Final residual = 4.737009377635471e-18, No Iterations 2
ExecutionTime = 103.28 s  ClockTime = 184 s

ORIG_COMP_STEP = 5.257266602000016
ORIG_IO_STEP = 1.80466398599998
Courant Number mean: 3.821836782904532e-10 max: 0.0003847571616184499
deltaT = 2.218611106740435e-08
Time = 1.27117e-07

PIMPLE: iteration 1
diagonal:  Solving for rho, Initial residual = 0, Final residual = 0, No Iterations 0
DILUPBiCG:  Solving for Ux, Initial residual = 0.1697659762309195, Final residual = 2.495505240673306e-18, No Iterations 2
DILUPBiCG:  Solving for Uy, Initial residual = 0.1697659762724255, Final residual = 8.408997325478476e-18, No Iterations 2
DILUPBiCG:  Solving for Uz, Initial residual = 0.05008116439142797, Final residual = 2.585148514753361e-18, No Iterations 2
DILUPBiCG:  Solving for e, Initial residual = 0.04998909813647016, Final residual = 8.219292861066046e-18, No Iterations 2
DILUPBiCG:  Solving for p, Initial residual = 0.05005702946744107, Final residual = 7.126391549782561e-09, No Iterations 1
diagonal:  Solving for rho, Initial residual = 0, Final residual = 0, No Iterations 0
time step continuity errors : sum local = 4.871929507991476e-16, global = -1.680753342647393e-16, cumulative = -3.983035855952466e-15
DILUPBiCG:  Solving for p, Initial residual = 9.297936096671636e-09, Final residual = 6.674570748049127e-14, No Iterations 1
diagonal:  Solving for rho, Initial residual = 0, Final residual = 0, No Iterations 0
time step continuity errors : sum local = 2.496855909805064e-16, global = -2.333711142219769e-16, cumulative = -4.216406970174443e-15
DILUPBiCG:  Solving for k, Initial residual = 0.1130508733743683, Final residual = 9.717876747395713e-18, No Iterations 2
ExecutionTime = 113.1 s  ClockTime = 196 s

ORIG_COMP_STEP = 9.780674515000015
ORIG_IO_STEP = 4.724505935000025
Courant Number mean: 4.586828152571441e-10 max: 0.0004615302830703819
deltaT = 2.662333328088522e-08
Time = 1.5374e-07

PIMPLE: iteration 1
diagonal:  Solving for rho, Initial residual = 0, Final residual = 0, No Iterations 0
DILUPBiCG:  Solving for Ux, Initial residual = 0.1684205859600747, Final residual = 4.437464939946675e-18, No Iterations 2
DILUPBiCG:  Solving for Uy, Initial residual = 0.1684205859925574, Final residual = 1.770574547284383e-17, No Iterations 2
DILUPBiCG:  Solving for Uz, Initial residual = 0.04960627258573654, Final residual = 4.93139083932996e-18, No Iterations 2
DILUPBiCG:  Solving for e, Initial residual = 0.04949610184434965, Final residual = 1.629668876492541e-17, No Iterations 2
DILUPBiCG:  Solving for p, Initial residual = 0.04957759084642486, Final residual = 1.018242326082514e-08, No Iterations 1
diagonal:  Solving for rho, Initial residual = 0, Final residual = 0, No Iterations 0
time step continuity errors : sum local = 1.01106589211169e-15, global = -4.864218718448835e-16, cumulative = -4.702828842019326e-15
DILUPBiCG:  Solving for p, Initial residual = 1.21122301427721e-08, Final residual = 1.043888820629905e-13, No Iterations 1
diagonal:  Solving for rho, Initial residual = 0, Final residual = 0, No Iterations 0
time step continuity errors : sum local = 5.884366495273525e-16, global = -5.861712788805863e-16, cumulative = -5.289000120899913e-15
DILUPBiCG:  Solving for k, Initial residual = 0.1108656712400994, Final residual = 2.042088496711642e-17, No Iterations 2
ExecutionTime = 116.3 s  ClockTime = 204 s

ORIG_COMP_STEP = 3.172648235999986
ORIG_IO_STEP = 5.315166617999978
Courant Number mean: 5.505152374424913e-10 max: 0.0005535838593398175
deltaT = 3.194799993706226e-08
Time = 1.85688e-07

PIMPLE: iteration 1
diagonal:  Solving for rho, Initial residual = 0, Final residual = 0, No Iterations 0
DILUPBiCG:  Solving for Ux, Initial residual = 0.1672948817922787, Final residual = 7.744630421218852e-18, No Iterations 2
DILUPBiCG:  Solving for Uy, Initial residual = 0.1672948818128929, Final residual = 4.232759546603384e-17, No Iterations 2
DILUPBiCG:  Solving for Uz, Initial residual = 0.04920774228707719, Final residual = 9.426731689968177e-18, No Iterations 2
DILUPBiCG:  Solving for e, Initial residual = 0.04907595358259936, Final residual = 3.310015486784491e-17, No Iterations 2
DILUPBiCG:  Solving for p, Initial residual = 0.04917370401820607, Final residual = 1.45752449458665e-08, No Iterations 1
diagonal:  Solving for rho, Initial residual = 0, Final residual = 0, No Iterations 0
time step continuity errors : sum local = 8.477981983805793e-16, global = 1.531599911960208e-16, cumulative = -5.135840129703892e-15
DILUPBiCG:  Solving for p, Initial residual = 1.499092830112569e-08, Final residual = 1.556903950673943e-13, No Iterations 1
diagonal:  Solving for rho, Initial residual = 0, Final residual = 0, No Iterations 0
time step continuity errors : sum local = 1.167733603373993e-16, global = -5.076555026378354e-17, cumulative = -5.186605679967676e-15
DILUPBiCG:  Solving for k, Initial residual = 0.1090397033149242, Final residual = 4.382230293879992e-17, No Iterations 2
ExecutionTime = 120.14 s  ClockTime = 213 s

ORIG_COMP_STEP = 3.82409264399999
ORIG_IO_STEP = 4.593882137000008
Courant Number mean: 6.60766576172609e-10 max: 0.0006639444024474666
deltaT = 3.833759992447472e-08
Time = 2.24026e-07

PIMPLE: iteration 1
diagonal:  Solving for rho, Initial residual = 0, Final residual = 0, No Iterations 0
DILUPBiCG:  Solving for Ux, Initial residual = 0.1663444085742025, Final residual = 1.289713505654385e-17, No Iterations 2
DILUPBiCG:  Solving for Uy, Initial residual = 0.1663444085828177, Final residual = 1.077538951945247e-16, No Iterations 2
DILUPBiCG:  Solving for Uz, Initial residual = 0.04886915209422447, Final residual = 1.789095523120137e-17, No Iterations 2
DILUPBiCG:  Solving for e, Initial residual = 0.04871155491642675, Final residual = 6.873392435218162e-17, No Iterations 2
DILUPBiCG:  Solving for p, Initial residual = 0.04882884451056303, Final residual = 2.089594387260876e-08, No Iterations 1
diagonal:  Solving for rho, Initial residual = 0, Final residual = 0, No Iterations 0
time step continuity errors : sum local = 1.383723878000297e-15, global = 4.253901841527619e-16, cumulative = -4.761215495814914e-15
DILUPBiCG:  Solving for p, Initial residual = 2.036021256934698e-08, Final residual = 2.554556908993952e-13, No Iterations 1
diagonal:  Solving for rho, Initial residual = 0, Final residual = 0, No Iterations 0
time step continuity errors : sum local = 1.336229540379647e-16, global = 7.865298818605481e-17, cumulative = -4.682562507628859e-15
DILUPBiCG:  Solving for k, Initial residual = 0.1075057488410369, Final residual = 9.575511612772399e-17, No Iterations 2
ExecutionTime = 123.78 s  ClockTime = 222 s

ORIG_COMP_STEP = 3.640397519999993
ORIG_IO_STEP = 4.25761146100001
Courant Number mean: 7.931509158476516e-10 max: 0.0007962328698137065
deltaT = 4.600511990936966e-08
Time = 2.70031e-07

PIMPLE: iteration 1
diagonal:  Solving for rho, Initial residual = 0, Final residual = 0, No Iterations 0
DILUPBiCG:  Solving for Ux, Initial residual = 0.1655328422261071, Final residual = 1.921429780485888e-17, No Iterations 2
DILUPBiCG:  Solving for Uy, Initial residual = 0.1655328422300462, Final residual = 3.021043117661336e-16, No Iterations 2
DILUPBiCG:  Solving for Uz, Initial residual = 0.04857713511428808, Final residual = 3.320051792318316e-17, No Iterations 2
DILUPBiCG:  Solving for e, Initial residual = 0.04838876906684769, Final residual = 1.456061064948245e-16, No Iterations 2
DILUPBiCG:  Solving for p, Initial residual = 0.04852954059546211, Final residual = 2.999951145956065e-08, No Iterations 1
diagonal:  Solving for rho, Initial residual = 0, Final residual = 0, No Iterations 0
time step continuity errors : sum local = 2.418966881156902e-15, global = 2.963731690668837e-16, cumulative = -4.386189338561975e-15
DILUPBiCG:  Solving for p, Initial residual = 2.862928039407687e-08, Final residual = 4.351178904464818e-13, No Iterations 1
diagonal:  Solving for rho, Initial residual = 0, Final residual = 0, No Iterations 0
time step continuity errors : sum local = 2.643170770065532e-16, global = -2.549591121175748e-16, cumulative = -4.64114845067955e-15
DILUPBiCG:  Solving for k, Initial residual = 0.1062106420315305, Final residual = 2.124663589463028e-16, No Iterations 2
ExecutionTime = 127.18 s  ClockTime = 230 s

ORIG_COMP_STEP = 3.309012711000008
ORIG_IO_STEP = 5.590691934000006
Courant Number mean: 9.521435221503385e-10 max: 0.0009547802819188148
deltaT = 5.520614389124359e-08
Time = 3.25237e-07

PIMPLE: iteration 1
diagonal:  Solving for rho, Initial residual = 0, Final residual = 0, No Iterations 0
DILUPBiCG:  Solving for Ux, Initial residual = 0.164830083805219, Final residual = 2.046668621370866e-17, No Iterations 2
DILUPBiCG:  Solving for Uy, Initial residual = 0.1648300838040274, Final residual = 1.243133248080657e-15, No Iterations 2
DILUPBiCG:  Solving for Uz, Initial residual = 0.04832060394757901, Final residual = 5.848165459675586e-17, No Iterations 2
DILUPBiCG:  Solving for e, Initial residual = 0.04809558909367955, Final residual = 3.139507552869482e-16, No Iterations 2
DILUPBiCG:  Solving for p, Initial residual = 0.04826457691385458, Final residual = 4.312400930828251e-08, No Iterations 1
diagonal:  Solving for rho, Initial residual = 0, Final residual = 0, No Iterations 0
time step continuity errors : sum local = 3.93673719691923e-15, global = 1.150824439287891e-15, cumulative = -3.490324011391658e-15
DILUPBiCG:  Solving for p, Initial residual = 4.071219800697445e-08, Final residual = 7.518927329181996e-13, No Iterations 1
diagonal:  Solving for rho, Initial residual = 0, Final residual = 0, No Iterations 0
time step continuity errors : sum local = 2.642807467449371e-16, global = 2.072539707289192e-16, cumulative = -3.283070040662739e-15
DILUPBiCG:  Solving for k, Initial residual = 0.1051118191384659, Final residual = 4.775399557182281e-16, No Iterations 2
ExecutionTime = 131.39 s  ClockTime = 239 s

ORIG_COMP_STEP = 4.193538001999997
ORIG_IO_STEP = 2.849449647
Courant Number mean: 1.143144601516594e-09 max: 0.001144766058994421
deltaT = 6.62473726694923e-08
Time = 3.91484e-07

PIMPLE: iteration 1
diagonal:  Solving for rho, Initial residual = 0, Final residual = 0, No Iterations 0
DILUPBiCG:  Solving for Ux, Initial residual = 0.1642108090172237, Final residual = 4.586171751589386e-17, No Iterations 2
DILUPBiCG:  Solving for Uy, Initial residual = 0.1642108090149423, Final residual = 7.671743053034842e-14, No Iterations 2
DILUPBiCG:  Solving for Uz, Initial residual = 0.04809017019502636, Final residual = 1.408549838177228e-16, No Iterations 2
DILUPBiCG:  Solving for e, Initial residual = 0.04782162231032321, Final residual = 6.874012595118985e-16, No Iterations 2
DILUPBiCG:  Solving for p, Initial residual = 0.04802450499732178, Final residual = 6.20644503955812e-08, No Iterations 1
diagonal:  Solving for rho, Initial residual = 0, Final residual = 0, No Iterations 0
time step continuity errors : sum local = 6.663458705057488e-15, global = 1.904241907865337e-15, cumulative = -1.378828132797402e-15
DILUPBiCG:  Solving for p, Initial residual = 5.840046127339597e-08, Final residual = 3.47825412758367e-19, No Iterations 2
diagonal:  Solving for rho, Initial residual = 0, Final residual = 0, No Iterations 0
time step continuity errors : sum local = 2.307168561531041e-16, global = 2.200759149508938e-16, cumulative = -1.158752217846509e-15
DILUPBiCG:  Solving for k, Initial residual = 0.1041748254812455, Final residual = 1.084882772076597e-15, No Iterations 2
ExecutionTime = 137.63 s  ClockTime = 249 s

ORIG_COMP_STEP = 6.245607777999993
ORIG_IO_STEP = 4.757249102999992
Courant Number mean: 1.372683189748197e-09 max: 0.001372384141132377
deltaT = 7.949684720339076e-08
Time = 4.70981e-07

PIMPLE: iteration 1
diagonal:  Solving for rho, Initial residual = 0, Final residual = 0, No Iterations 0
DILUPBiCG:  Solving for Ux, Initial residual = 0.1636533444833422, Final residual = 2.379487527093017e-16, No Iterations 2
DILUPBiCG:  Solving for Uy, Initial residual = 0.1636533444780053, Final residual = 4.635337137736175e-15, No Iterations 2
DILUPBiCG:  Solving for Uz, Initial residual = 0.04787770355042232, Final residual = 4.837489701878604e-16, No Iterations 2
DILUPBiCG:  Solving for e, Initial residual = 0.04755752937456744, Final residual = 1.524893344695526e-15, No Iterations 2
DILUPBiCG:  Solving for p, Initial residual = 0.04780112235350648, Final residual = 8.942687791635585e-08, No Iterations 1
diagonal:  Solving for rho, Initial residual = 0, Final residual = 0, No Iterations 0
time step continuity errors : sum local = 1.132521058131818e-14, global = 3.113428720954507e-15, cumulative = 1.954676503107998e-15
DILUPBiCG:  Solving for p, Initial residual = 8.460243340665886e-08, Final residual = 1.067274718104282e-18, No Iterations 2
diagonal:  Solving for rho, Initial residual = 0, Final residual = 0, No Iterations 0
time step continuity errors : sum local = 1.47301455655481e-16, global = 1.239605607867618e-16, cumulative = 2.07863706389476e-15
DILUPBiCG:  Solving for k, Initial residual = 0.1033714889473136, Final residual = 2.486634893344355e-15, No Iterations 2
ExecutionTime = 142.06 s  ClockTime = 258 s

ORIG_COMP_STEP = 4.437410127000021
ORIG_IO_STEP = 2.365969325999998
Courant Number mean: 1.648673951174727e-09 max: 0.001645043660237712
deltaT = 9.53962166440689e-08
Time = 5.66377e-07

PIMPLE: iteration 1
diagonal:  Solving for rho, Initial residual = 0, Final residual = 0, No Iterations 0
DILUPBiCG:  Solving for Ux, Initial residual = 0.1631387974936163, Final residual = 9.136621693969172e-16, No Iterations 2
DILUPBiCG:  Solving for Uy, Initial residual = 0.1631387974884403, Final residual = 4.769731727226175e-15, No Iterations 2
DILUPBiCG:  Solving for Uz, Initial residual = 0.04767599177149333, Final residual = 1.720901034611044e-15, No Iterations 2
DILUPBiCG:  Solving for e, Initial residual = 0.04729473479895493, Final residual = 3.419878342736323e-15, No Iterations 2
DILUPBiCG:  Solving for p, Initial residual = 0.04758721638501776, Final residual = 1.290007055862193e-07, No Iterations 1
diagonal:  Solving for rho, Initial residual = 0, Final residual = 0, No Iterations 0
time step continuity errors : sum local = 1.98229309089376e-14, global = 5.705849423270738e-15, cumulative = 7.784486487165498e-15
DILUPBiCG:  Solving for p, Initial residual = 1.227691203588636e-07, Final residual = 3.293141942354978e-18, No Iterations 2
diagonal:  Solving for rho, Initial residual = 0, Final residual = 0, No Iterations 0
time step continuity errors : sum local = 5.105418488192927e-16, global = 5.04004536760209e-16, cumulative = 8.288491023925707e-15
DILUPBiCG:  Solving for k, Initial residual = 0.1026785526782096, Final residual = 5.741699885305916e-15, No Iterations 2
ExecutionTime = 147.41 s  ClockTime = 266 s

ORIG_COMP_STEP = 5.260832300000004
ORIG_IO_STEP = 4.564769385999995
Courant Number mean: 1.980745283253025e-09 max: 0.00197161358078913
deltaT = 1.144754599728827e-07
Time = 6.80853e-07

PIMPLE: iteration 1
diagonal:  Solving for rho, Initial residual = 0, Final residual = 0, No Iterations 0
DILUPBiCG:  Solving for Ux, Initial residual = 0.1626503755651169, Final residual = 3.13672470259371e-15, No Iterations 2
DILUPBiCG:  Solving for Uy, Initial residual = 0.1626503755615581, Final residual = 1.456493728254564e-14, No Iterations 2
DILUPBiCG:  Solving for Uz, Initial residual = 0.04747847880868215, Final residual = 7.186936966386042e-15, No Iterations 2
DILUPBiCG:  Solving for e, Initial residual = 0.04702517996184462, Final residual = 7.738467905291075e-15, No Iterations 2
DILUPBiCG:  Solving for p, Initial residual = 0.04737633549790027, Final residual = 1.863055304174001e-07, No Iterations 1
diagonal:  Solving for rho, Initial residual = 0, Final residual = 0, No Iterations 0
time step continuity errors : sum local = 3.362228773224995e-14, global = 8.97687797778546e-15, cumulative = 1.726536900171116e-14
DILUPBiCG:  Solving for p, Initial residual = 1.792419204446346e-07, Final residual = 1.026579883019897e-17, No Iterations 2
diagonal:  Solving for rho, Initial residual = 0, Final residual = 0, No Iterations 0
time step continuity errors : sum local = 1.789678849792703e-16, global = -1.397758854523985e-16, cumulative = 1.712559311625877e-14
DILUPBiCG:  Solving for k, Initial residual = 0.1020766852074154, Final residual = 1.333969411982316e-14, No Iterations 2
ExecutionTime = 153.54 s  ClockTime = 277 s

ORIG_COMP_STEP = 6.112371316000008
ORIG_IO_STEP = 3.980299129999992
Courant Number mean: 2.380665807847664e-09 max: 0.002362724964306341
deltaT = 1.373705519674592e-07
Time = 8.18223e-07

PIMPLE: iteration 1
diagonal:  Solving for rho, Initial residual = 0, Final residual = 0, No Iterations 0
DILUPBiCG:  Solving for Ux, Initial residual = 0.1621728660034492, Final residual = 1.018281911648531e-14, No Iterations 2
DILUPBiCG:  Solving for Uy, Initial residual = 0.1621728660001498, Final residual = 4.273992135393852e-14, No Iterations 2
DILUPBiCG:  Solving for Uz, Initial residual = 0.04727908020810942, Final residual = 9.980427530760766e-14, No Iterations 2
DILUPBiCG:  Solving for e, Initial residual = 0.04674109750890296, Final residual = 1.763547557699512e-14, No Iterations 2
DILUPBiCG:  Solving for p, Initial residual = 0.0471626225948542, Final residual = 2.69396204375468e-07, No Iterations 1
diagonal:  Solving for rho, Initial residual = 0, Final residual = 0, No Iterations 0
time step continuity errors : sum local = 5.821244745995104e-14, global = 1.63125430781587e-14, cumulative = 3.343813619441747e-14
DILUPBiCG:  Solving for p, Initial residual = 2.627314870717266e-07, Final residual = 3.228483461046838e-17, No Iterations 2
diagonal:  Solving for rho, Initial residual = 0, Final residual = 0, No Iterations 0
time step continuity errors : sum local = 2.63716958132632e-16, global = 2.504531950282104e-16, cumulative = 3.368858938944568e-14
DILUPBiCG:  Solving for k, Initial residual = 0.1015496993643829, Final residual = 3.11550698072756e-14, No Iterations 2
ExecutionTime = 158.61 s  ClockTime = 286 s

ORIG_COMP_STEP = 5.07436881000001
ORIG_IO_STEP = 4.398699257999965
Courant Number mean: 2.862909935920228e-09 max: 0.002831151431733681
deltaT = 1.64844662360951e-07
Time = 9.83068e-07

PIMPLE: iteration 1
diagonal:  Solving for rho, Initial residual = 0, Final residual = 0, No Iterations 0
DILUPBiCG:  Solving for Ux, Initial residual = 0.1616922615259417, Final residual = 3.201095780561265e-14, No Iterations 2
DILUPBiCG:  Solving for Uy, Initial residual = 0.1616922615235979, Final residual = 1.269596658043773e-13, No Iterations 2
DILUPBiCG:  Solving for Uz, Initial residual = 0.04707203828855765, Final residual = 5.035418689132605e-14, No Iterations 2
DILUPBiCG:  Solving for e, Initial residual = 0.04643494735953911, Final residual = 4.041231667821192e-14, No Iterations 2
DILUPBiCG:  Solving for p, Initial residual = 0.04694076305454027, Final residual = 3.900511392934208e-07, No Iterations 1
diagonal:  Solving for rho, Initial residual = 0, Final residual = 0, No Iterations 0
time step continuity errors : sum local = 1.007101189912503e-13, global = 2.859968121030687e-14, cumulative = 6.228827059975254e-14
DILUPBiCG:  Solving for p, Initial residual = 3.862512627617435e-07, Final residual = 1.023966990678585e-16, No Iterations 2
diagonal:  Solving for rho, Initial residual = 0, Final residual = 0, No Iterations 0
time step continuity errors : sum local = 2.019548836161197e-16, global = 1.941943931491397e-16, cumulative = 6.248246499290168e-14
DILUPBiCG:  Solving for k, Initial residual = 0.1010839782497817, Final residual = 7.309649208636026e-14, No Iterations 2
ExecutionTime = 163.44 s  ClockTime = 296 s

ORIG_COMP_STEP = 4.817692145000024
ORIG_IO_STEP = 3.520529115999977
Courant Number mean: 3.445424697988351e-09 max: 0.003392299833723809
deltaT = 1.978135948331412e-07
Time = 1.18088e-06

PIMPLE: iteration 1
diagonal:  Solving for rho, Initial residual = 0, Final residual = 0, No Iterations 0
DILUPBiCG:  Solving for Ux, Initial residual = 0.1611955281000234, Final residual = 9.862307698197272e-14, No Iterations 2
DILUPBiCG:  Solving for Uy, Initial residual = 0.1611955280985311, Final residual = 3.884985196297869e-13, No Iterations 2
DILUPBiCG:  Solving for Uz, Initial residual = 0.04685187130836795, Final residual = 6.722580483013447e-14, No Iterations 2
DILUPBiCG:  Solving for e, Initial residual = 0.04609939244122332, Final residual = 9.298957794772951e-14, No Iterations 2
DILUPBiCG:  Solving for p, Initial residual = 0.04670597401169939, Final residual = 5.65529766568793e-07, No Iterations 1
diagonal:  Solving for rho, Initial residual = 0, Final residual = 0, No Iterations 0
time step continuity errors : sum local = 1.748660159056709e-13, global = 4.970148425958902e-14, cumulative = 1.121839492524907e-13
DILUPBiCG:  Solving for p, Initial residual = 5.692583803228846e-07, Final residual = 3.276333633540285e-16, No Iterations 2
diagonal:  Solving for rho, Initial residual = 0, Final residual = 0, No Iterations 0
time step continuity errors : sum local = 5.855363928050708e-16, global = -5.838060164330334e-16, cumulative = 1.116001432360577e-13
DILUPBiCG:  Solving for k, Initial residual = 0.100668044115179, Final residual = 1.73097636566402e-13, No Iterations 2
ExecutionTime = 167.33 s  ClockTime = 303 s

ORIG_COMP_STEP = 3.893509718000018
ORIG_IO_STEP = 4.090630030999989
Courant Number mean: 4.150694228482582e-09 max: 0.004064862143466309
deltaT = 2.373763137997695e-07
Time = 1.41826e-06

PIMPLE: iteration 1
diagonal:  Solving for rho, Initial residual = 0, Final residual = 0, No Iterations 0
DILUPBiCG:  Solving for Ux, Initial residual = 0.1606705318937345, Final residual = 2.997670113036848e-13, No Iterations 2
DILUPBiCG:  Solving for Uy, Initial residual = 0.1606705318934913, Final residual = 4.131331467711752e-19, No Iterations 3
DILUPBiCG:  Solving for Uz, Initial residual = 0.04661339291580836, Final residual = 1.805464296255635e-13, No Iterations 2
DILUPBiCG:  Solving for e, Initial residual = 0.04572743435878363, Final residual = 2.146029118282859e-13, No Iterations 2
DILUPBiCG:  Solving for p, Initial residual = 0.04645412292098363, Final residual = 8.211761165211736e-07, No Iterations 1
diagonal:  Solving for rho, Initial residual = 0, Final residual = 0, No Iterations 0
time step continuity errors : sum local = 3.026666535363213e-13, global = 8.931942624803027e-14, cumulative = 2.009195694840879e-13
DILUPBiCG:  Solving for p, Initial residual = 8.412954835741216e-07, Final residual = 1.058681736392933e-15, No Iterations 2
diagonal:  Solving for rho, Initial residual = 0, Final residual = 0, No Iterations 0
time step continuity errors : sum local = 1.26901571406847e-16, global = -3.64243027961209e-18, cumulative = 2.009159270538083e-13
DILUPBiCG:  Solving for k, Initial residual = 0.1002922723334035, Final residual = 4.171180144119038e-13, No Iterations 2
ExecutionTime = 170.44 s  ClockTime = 311 s

ORIG_COMP_STEP = 3.10573593099997
ORIG_IO_STEP = 6.762516084000026
Courant Number mean: 5.00725281478671e-09 max: 0.004871711167259791
deltaT = 2.848515765597234e-07
Time = 1.70311e-06

PIMPLE: iteration 1
diagonal:  Solving for rho, Initial residual = 0, Final residual = 0, No Iterations 0
DILUPBiCG:  Solving for Ux, Initial residual = 0.16010615504062, Final residual = 9.023408918977654e-13, No Iterations 2
DILUPBiCG:  Solving for Uy, Initial residual = 0.160106155042154, Final residual = 1.453167782262611e-18, No Iterations 3
DILUPBiCG:  Solving for Uz, Initial residual = 0.04635182046498362, Final residual = 5.289178511621179e-13, No Iterations 2
DILUPBiCG:  Solving for e, Initial residual = 0.0453126821108582, Final residual = 4.962234064430657e-13, No Iterations 2
DILUPBiCG:  Solving for p, Initial residual = 0.04618192338131977, Final residual = 1.194276720561968e-06, No Iterations 1
diagonal:  Solving for rho, Initial residual = 0, Final residual = 0, No Iterations 0
time step continuity errors : sum local = 5.256257876842e-13, global = 1.594699533134529e-13, cumulative = 3.603858803672613e-13
DILUPBiCG:  Solving for p, Initial residual = 1.246005284294882e-06, Final residual = 3.456897393489417e-15, No Iterations 2
diagonal:  Solving for rho, Initial residual = 0, Final residual = 0, No Iterations 0
time step continuity errors : sum local = 1.524343021230301e-16, global = 1.215363420272074e-16, cumulative = 3.605074167092884e-13
DILUPBiCG:  Solving for k, Initial residual = 0.09994863968526085, Final residual = 2.987776198074179e-18, No Iterations 3
ExecutionTime = 173.51 s  ClockTime = 321 s

ORIG_COMP_STEP = 3.017506149000042
ORIG_IO_STEP = 3.25899562699999
Courant Number mean: 6.051884247976464e-09 max: 0.00584117488341125
deltaT = 3.41821891871668e-07
Time = 2.04493e-06

PIMPLE: iteration 1
diagonal:  Solving for rho, Initial residual = 0, Final residual = 0, No Iterations 0
DILUPBiCG:  Solving for Ux, Initial residual = 0.1594926442096433, Final residual = 2.303963183408666e-20, No Iterations 3
DILUPBiCG:  Solving for Uy, Initial residual = 0.1594926442169662, Final residual = 5.119258201821411e-18, No Iterations 3
DILUPBiCG:  Solving for Uz, Initial residual = 0.04606310217070164, Final residual = 1.077081058096244e-17, No Iterations 3
DILUPBiCG:  Solving for e, Initial residual = 0.04484987092809082, Final residual = 5.372814127933801e-18, No Iterations 3
DILUPBiCG:  Solving for p, Initial residual = 0.04588727558726381, Final residual = 1.739769361069504e-06, No Iterations 1
diagonal:  Solving for rho, Initial residual = 0, Final residual = 0, No Iterations 0
time step continuity errors : sum local = 9.135696534556669e-13, global = 2.851057590334158e-13, cumulative = 6.456131757427043e-13
DILUPBiCG:  Solving for p, Initial residual = 1.848880769122348e-06, Final residual = 1.141691798117308e-14, No Iterations 2
diagonal:  Solving for rho, Initial residual = 0, Final residual = 0, No Iterations 0
time step continuity errors : sum local = 1.923575172791046e-16, global = -1.73365002057963e-16, cumulative = 6.454398107406463e-13
DILUPBiCG:  Solving for k, Initial residual = 0.09963055187479329, Final residual = 1.113130488383612e-17, No Iterations 3
ExecutionTime = 179.08 s  ClockTime = 330 s

ORIG_COMP_STEP = 5.583492405000015
ORIG_IO_STEP = 7.634764737000012
Courant Number mean: 7.332882698853577e-09 max: 0.007008909706446893
deltaT = 4.101862702460016e-07
Time = 2.45512e-06

PIMPLE: iteration 1
diagonal:  Solving for rho, Initial residual = 0, Final residual = 0, No Iterations 0
DILUPBiCG:  Solving for Ux, Initial residual = 0.1588222499048301, Final residual = 1.794876148634784e-19, No Iterations 3
DILUPBiCG:  Solving for Uy, Initial residual = 0.1588222499295356, Final residual = 1.804558127299518e-17, No Iterations 3
DILUPBiCG:  Solving for Uz, Initial residual = 0.04574442795099858, Final residual = 4.16554888208544e-17, No Iterations 3
DILUPBiCG:  Solving for e, Initial residual = 0.04433566621859777, Final residual = 1.982644860242166e-17, No Iterations 3
DILUPBiCG:  Solving for p, Initial residual = 0.04556973150892821, Final residual = 2.538651820622794e-06, No Iterations 1
diagonal:  Solving for rho, Initial residual = 0, Final residual = 0, No Iterations 0
time step continuity errors : sum local = 1.588957214505251e-12, global = 5.119940195762838e-13, cumulative = 1.15743383031693e-12
DILUPBiCG:  Solving for p, Initial residual = 2.746696665384669e-06, Final residual = 3.818664626893552e-14, No Iterations 2
diagonal:  Solving for rho, Initial residual = 0, Final residual = 0, No Iterations 0
time step continuity errors : sum local = 1.890074664694917e-16, global = -1.70960928242785e-16, cumulative = 1.157262869388687e-12
DILUPBiCG:  Solving for k, Initial residual = 0.09933265615022024, Final residual = 4.109727298752154e-17, No Iterations 3
ExecutionTime = 276.78 s  ClockTime = 439 s

ORIG_COMP_STEP = 98.105704371
ORIG_IO_STEP = 6.673583291999989
Courant Number mean: 8.914965514323585e-09 max: 0.008420730813754941
deltaT = 4.922235242952019e-07
Time = 2.94734e-06

PIMPLE: iteration 1
diagonal:  Solving for rho, Initial residual = 0, Final residual = 0, No Iterations 0
DILUPBiCG:  Solving for Ux, Initial residual = 0.1580902151447627, Final residual = 1.396752522932986e-18, No Iterations 3
DILUPBiCG:  Solving for Uy, Initial residual = 0.1580902152217057, Final residual = 6.376984978567273e-17, No Iterations 3
DILUPBiCG:  Solving for Uz, Initial residual = 0.04539499463618209, Final residual = 1.646328524600075e-16, No Iterations 3
DILUPBiCG:  Solving for e, Initial residual = 0.04376989928643096, Final residual = 7.241651513906838e-17, No Iterations 3
DILUPBiCG:  Solving for p, Initial residual = 0.04523114810480213, Final residual = 3.710257076117781e-06, No Iterations 1
diagonal:  Solving for rho, Initial residual = 0, Final residual = 0, No Iterations 0
time step continuity errors : sum local = 2.765164955277928e-12, global = 9.219510916492215e-13, cumulative = 2.079213961037909e-12
DILUPBiCG:  Solving for p, Initial residual = 4.082245955246579e-06, Final residual = 1.294827985566612e-13, No Iterations 2
diagonal:  Solving for rho, Initial residual = 0, Final residual = 0, No Iterations 0
time step continuity errors : sum local = 1.319686863760483e-16, global = 1.498008775166369e-17, cumulative = 2.079228941125661e-12
DILUPBiCG:  Solving for k, Initial residual = 0.09905055615177036, Final residual = 1.503426773720795e-16, No Iterations 3
ExecutionTime = 280.06 s  ClockTime = 449 s

ORIG_COMP_STEP = 3.229960896000023
ORIG_IO_STEP = 8.034430384000018
Courant Number mean: 1.088675855336788e-08 max: 0.01013697504870315
deltaT = 5.906682291542422e-07
Time = 3.53801e-06

PIMPLE: iteration 1
diagonal:  Solving for rho, Initial residual = 0, Final residual = 0, No Iterations 0
DILUPBiCG:  Solving for Ux, Initial residual = 0.1572961554297408, Final residual = 1.086124439007578e-17, No Iterations 3
DILUPBiCG:  Solving for Uy, Initial residual = 0.1572961556122716, Final residual = 2.281816987754092e-16, No Iterations 3
DILUPBiCG:  Solving for Uz, Initial residual = 0.0450172201910639, Final residual = 6.58902422524744e-16, No Iterations 3
DILUPBiCG:  Solving for e, Initial residual = 0.0431572628153517, Final residual = 2.611721628208216e-16, No Iterations 3
DILUPBiCG:  Solving for p, Initial residual = 0.04488006823145835, Final residual = 5.429540979162493e-06, No Iterations 1
diagonal:  Solving for rho, Initial residual = 0, Final residual = 0, No Iterations 0
time step continuity errors : sum local = 4.814007961808867e-12, global = 1.661616418063851e-12, cumulative = 3.740845359189512e-12
DILUPBiCG:  Solving for p, Initial residual = 6.06115381611668e-06, Final residual = 4.466822087744307e-13, No Iterations 2
diagonal:  Solving for rho, Initial residual = 0, Final residual = 0, No Iterations 0
time step continuity errors : sum local = 2.786291006420541e-16, global = 2.682959818669598e-16, cumulative = 3.741113655171379e-12
DILUPBiCG:  Solving for k, Initial residual = 0.09878028334212215, Final residual = 5.448785935299814e-16, No Iterations 3
ExecutionTime = 284.34 s  ClockTime = 462 s

ORIG_COMP_STEP = 4.270736013999965
ORIG_IO_STEP = 3.479882978999967
Courant Number mean: 1.337218849611562e-08 max: 0.01223925488543549
deltaT = 7.088018749850907e-07
Time = 4.24681e-06

PIMPLE: iteration 1
diagonal:  Solving for rho, Initial residual = 0, Final residual = 0, No Iterations 0
DILUPBiCG:  Solving for Ux, Initial residual = 0.1564459267090472, Final residual = 8.461124584903729e-17, No Iterations 3
DILUPBiCG:  Solving for Uy, Initial residual = 0.1564459269327536, Final residual = 8.421618218922931e-16, No Iterations 3
DILUPBiCG:  Solving for Uz, Initial residual = 0.04461842239532658, Final residual = 2.653438853769049e-15, No Iterations 3
DILUPBiCG:  Solving for e, Initial residual = 0.0425103658551977, Final residual = 9.22445871694631e-16, No Iterations 3
DILUPBiCG:  Solving for p, Initial residual = 0.04452796008854734, Final residual = 7.951279022909408e-06, No Iterations 1
diagonal:  Solving for rho, Initial residual = 0, Final residual = 0, No Iterations 0
time step continuity errors : sum local = 8.378844681312059e-12, global = 2.989748126578466e-12, cumulative = 6.730861781749845e-12
DILUPBiCG:  Solving for p, Initial residual = 8.97800898983219e-06, Final residual = 1.532458792550928e-16, No Iterations 3
diagonal:  Solving for rho, Initial residual = 0, Final residual = 0, No Iterations 0
time step continuity errors : sum local = 2.147657298935733e-16, global = -1.998454173152388e-16, cumulative = 6.73066193633253e-12
DILUPBiCG:  Solving for k, Initial residual = 0.09851729355498681, Final residual = 1.95629686987638e-15, No Iterations 3
ExecutionTime = 291.57 s  ClockTime = 473 s

ORIG_COMP_STEP = 7.212191527000016
ORIG_IO_STEP = 4.240878989000009
Courant Number mean: 1.654776514839864e-08 max: 0.01484090815079476
deltaT = 8.505622499821088e-07
Time = 5.09737e-06

PIMPLE: iteration 1
diagonal:  Solving for rho, Initial residual = 0, Final residual = 0, No Iterations 0
DILUPBiCG:  Solving for Ux, Initial residual = 0.1555535920020544, Final residual = 6.563772267550132e-16, No Iterations 3
DILUPBiCG:  Solving for Uy, Initial residual = 0.1555535920438805, Final residual = 3.336825734993121e-15, No Iterations 3
DILUPBiCG:  Solving for Uz, Initial residual = 0.04421301752565001, Final residual = 1.070305716676889e-14, No Iterations 3
DILUPBiCG:  Solving for e, Initial residual = 0.04185200035118657, Final residual = 3.198886568278047e-15, No Iterations 3
DILUPBiCG:  Solving for p, Initial residual = 0.04418243845217988, Final residual = 1.164330888774056e-05, No Iterations 1
diagonal:  Solving for rho, Initial residual = 0, Final residual = 0, No Iterations 0
time step continuity errors : sum local = 1.457039105750501e-11, global = 5.360857621948694e-12, cumulative = 1.209151955828123e-11
DILUPBiCG:  Solving for p, Initial residual = 1.325552519419129e-05, Final residual = 7.023444038531491e-16, No Iterations 3
diagonal:  Solving for rho, Initial residual = 0, Final residual = 0, No Iterations 0
time step continuity errors : sum local = 2.657939246767783e-16, global = 1.846573435482878e-16, cumulative = 1.209170421562477e-11
DILUPBiCG:  Solving for k, Initial residual = 0.0982546520715873, Final residual = 6.95982011742264e-15, No Iterations 3
ExecutionTime = 300.01 s  ClockTime = 486 s

ORIG_COMP_STEP = 8.412851498000009
ORIG_IO_STEP = 9.072362708000014
Courant Number mean: 2.06689152822787e-08 max: 0.01810326026851849
deltaT = 1.02067469997853e-06
Time = 6.11805e-06

PIMPLE: iteration 1
diagonal:  Solving for rho, Initial residual = 0, Final residual = 0, No Iterations 0
DILUPBiCG:  Solving for Ux, Initial residual = 0.1546427285782087, Final residual = 5.043119330682774e-15, No Iterations 3
DILUPBiCG:  Solving for Uy, Initial residual = 0.1546427279722688, Final residual = 1.785801873946747e-14, No Iterations 3
DILUPBiCG:  Solving for Uz, Initial residual = 0.04382509647968009, Final residual = 4.312683878919836e-14, No Iterations 3
DILUPBiCG:  Solving for e, Initial residual = 0.04121594120740221, Final residual = 1.083775091351192e-14, No Iterations 3
DILUPBiCG:  Solving for p, Initial residual = 0.04386317665767536, Final residual = 1.702424522842921e-05, No Iterations 1
diagonal:  Solving for rho, Initial residual = 0, Final residual = 0, No Iterations 0
time step continuity errors : sum local = 2.528110133385163e-11, global = 9.525048415009067e-12, cumulative = 2.161675263063384e-11
DILUPBiCG:  Solving for p, Initial residual = 1.946435635611742e-05, Final residual = 3.190248412865289e-15, No Iterations 3
diagonal:  Solving for rho, Initial residual = 0, Final residual = 0, No Iterations 0
time step continuity errors : sum local = 1.821693404990921e-16, global = -5.174398736964247e-17, cumulative = 2.161670088664647e-11
DILUPBiCG:  Solving for k, Initial residual = 0.09797999113366056, Final residual = 2.455896984238935e-14, No Iterations 3
ExecutionTime = 309.08 s  ClockTime = 505 s

ORIG_COMP_STEP = 8.967283272999964
ORIG_IO_STEP = 7.438906712000005
Courant Number mean: 2.610901151156877e-08 max: 0.02226018300948493
deltaT = 1.224809639974236e-06
Time = 7.34286e-06

PIMPLE: iteration 1
diagonal:  Solving for rho, Initial residual = 0, Final residual = 0, No Iterations 0
DILUPBiCG:  Solving for Ux, Initial residual = 0.1537465953555046, Final residual = 3.824791982435009e-14, No Iterations 3
DILUPBiCG:  Solving for Uy, Initial residual = 0.1537465932535102, Final residual = 1.121956844448674e-13, No Iterations 3
DILUPBiCG:  Solving for Uz, Initial residual = 0.04349112013812836, Final residual = 1.735319818189083e-13, No Iterations 3
DILUPBiCG:  Solving for e, Initial residual = 0.04065043283269867, Final residual = 3.573056967912829e-14, No Iterations 3
DILUPBiCG:  Solving for p, Initial residual = 0.04359206731806133, Final residual = 2.480302426735147e-05, No Iterations 1
diagonal:  Solving for rho, Initial residual = 0, Final residual = 0, No Iterations 0
time step continuity errors : sum local = 4.368504316122912e-11, global = 1.663964962783959e-11, cumulative = 3.825635051448605e-11
DILUPBiCG:  Solving for p, Initial residual = 2.830375911351993e-05, Final residual = 1.442790655977052e-14, No Iterations 3
diagonal:  Solving for rho, Initial residual = 0, Final residual = 0, No Iterations 0
time step continuity errors : sum local = 1.605699733226764e-16, global = -4.95291618121888e-17, cumulative = 3.825630098532424e-11
DILUPBiCG:  Solving for k, Initial residual = 0.09767088089283683, Final residual = 8.617388256867126e-14, No Iterations 3
ExecutionTime = 316.48 s  ClockTime = 520 s

ORIG_COMP_STEP = 7.322433361000037
ORIG_IO_STEP = 7.330734627000027
Courant Number mean: 3.341530897223134e-08 max: 0.02765365382589852
deltaT = 1.469771567969084e-06
Time = 8.81263e-06

PIMPLE: iteration 1
diagonal:  Solving for rho, Initial residual = 0, Final residual = 0, No Iterations 0
DILUPBiCG:  Solving for Ux, Initial residual = 0.1529051161132713, Final residual = 2.842525776318145e-13, No Iterations 3
DILUPBiCG:  Solving for Uy, Initial residual = 0.1529051122512765, Final residual = 8.060794258822451e-13, No Iterations 3
DILUPBiCG:  Solving for Uz, Initial residual = 0.0432615904229631, Final residual = 7.016786111818703e-13, No Iterations 3
DILUPBiCG:  Solving for e, Initial residual = 0.04021645356700321, Final residual = 1.137779510633221e-13, No Iterations 3
DILUPBiCG:  Solving for p, Initial residual = 0.0433894665333214, Final residual = 3.590180006967425e-05, No Iterations 1
diagonal:  Solving for rho, Initial residual = 0, Final residual = 0, No Iterations 0
time step continuity errors : sum local = 7.497132427283241e-11, global = 2.822435938418057e-11, cumulative = 6.648066036950482e-11
DILUPBiCG:  Solving for p, Initial residual = 4.044497130638357e-05, Final residual = 7.510046264973973e-14, No Iterations 3
diagonal:  Solving for rho, Initial residual = 0, Final residual = 0, No Iterations 0
time step continuity errors : sum local = 1.837356332019553e-16, global = -6.668319430207597e-17, cumulative = 6.648059368631051e-11
DILUPBiCG:  Solving for k, Initial residual = 0.09728878567122701, Final residual = 3.023457686994851e-13, No Iterations 3
ExecutionTime = 320.88 s  ClockTime = 532 s

ORIG_COMP_STEP = 4.405030540999974
ORIG_IO_STEP = 3.54531745700001
Courant Number mean: 4.338542703450387e-08 max: 0.03478177481194546
deltaT = 1.7637258815629e-06
Time = 1.05764e-05

PIMPLE: iteration 1
diagonal:  Solving for rho, Initial residual = 0, Final residual = 0, No Iterations 0
DILUPBiCG:  Solving for Ux, Initial residual = 0.1521560923465959, Final residual = 3.570821485578293e-16, No Iterations 4
DILUPBiCG:  Solving for Uy, Initial residual = 0.1521560871824498, Final residual = 3.508025077162569e-15, No Iterations 4
DILUPBiCG:  Solving for Uz, Initial residual = 0.04319969579708275, Final residual = 4.625387887313083e-16, No Iterations 4
DILUPBiCG:  Solving for e, Initial residual = 0.03997927189456445, Final residual = 3.401017222989257e-13, No Iterations 3
DILUPBiCG:  Solving for p, Initial residual = 0.04326627474738784, Final residual = 5.142795543069537e-05, No Iterations 1
diagonal:  Solving for rho, Initial residual = 0, Final residual = 0, No Iterations 0
time step continuity errors : sum local = 1.273090268845673e-10, global = 4.558505132219943e-11, cumulative = 1.1206564500851e-10
DILUPBiCG:  Solving for p, Initial residual = 5.592515685218285e-05, Final residual = 5.150798421604063e-13, No Iterations 3
diagonal:  Solving for rho, Initial residual = 0, Final residual = 0, No Iterations 0
time step continuity errors : sum local = 1.942978622684422e-16, global = -7.477458249348909e-18, cumulative = 1.120656375310517e-10
DILUPBiCG:  Solving for k, Initial residual = 0.0967726873888831, Final residual = 3.64916295140636e-17, No Iterations 4
ExecutionTime = 331.54 s  ClockTime = 546 s

ORIG_COMP_STEP = 10.69828422800003
ORIG_IO_STEP = 6.830304073999969
Courant Number mean: 5.716643880372213e-08 max: 0.04435551331002049
deltaT = 2.11647105787548e-06
Time = 1.26928e-05

PIMPLE: iteration 1
diagonal:  Solving for rho, Initial residual = 0, Final residual = 0, No Iterations 0
DILUPBiCG:  Solving for Ux, Initial residual = 0.151518697740867, Final residual = 8.782888651703257e-15, No Iterations 4
DILUPBiCG:  Solving for Uy, Initial residual = 0.151518689758035, Final residual = 4.081978931062972e-14, No Iterations 4
DILUPBiCG:  Solving for Uz, Initial residual = 0.04337440008448806, Final residual = 9.521234257410798e-15, No Iterations 4
DILUPBiCG:  Solving for e, Initial residual = 0.03998862486153544, Final residual = 8.400373835853404e-13, No Iterations 3
DILUPBiCG:  Solving for p, Initial residual = 0.0432121281480195, Final residual = 7.252630818073164e-05, No Iterations 1
diagonal:  Solving for rho, Initial residual = 0, Final residual = 0, No Iterations 0
time step continuity errors : sum local = 2.128199061890962e-10, global = 6.80844098910646e-11, cumulative = 1.801500474221163e-10
DILUPBiCG:  Solving for p, Initial residual = 7.50673464485113e-05, Final residual = 4.060133954251031e-15, No Iterations 4
diagonal:  Solving for rho, Initial residual = 0, Final residual = 0, No Iterations 0
time step continuity errors : sum local = 1.636911194503444e-16, global = 2.298860056380341e-17, cumulative = 1.801500704107169e-10
DILUPBiCG:  Solving for k, Initial residual = 0.09603602089191282, Final residual = 2.667444762438175e-16, No Iterations 4
ExecutionTime = 335.88 s  ClockTime = 558 s

ORIG_COMP_STEP = 4.245399297999938
ORIG_IO_STEP = 4.359446313999911
Courant Number mean: 7.637918663445932e-08 max: 0.05734724197700234
deltaT = 2.539765269450577e-06
Time = 1.52326e-05

PIMPLE: iteration 1
diagonal:  Solving for rho, Initial residual = 0, Final residual = 0, No Iterations 0
DILUPBiCG:  Solving for Ux, Initial residual = 0.1509720132077004, Final residual = 7.081392919265933e-13, No Iterations 4
[...]
ExecutionTime = 1616.02 s  ClockTime = 9053 s

ORIG_COMP_STEP = 7.152777684999819
ORIG_IO_STEP = 63.61223555099969
Courant Number mean: 2.171120030659484e-06 max: 0.200160755938332
deltaT = 2.740301576080294e-06
Time = 0.000170555

PIMPLE: iteration 1
diagonal:  Solving for rho, Initial residual = 0, Final residual = 0, No Iterations 0
DILUPBiCG:  Solving for Ux, Initial residual = 0.01634377712930261, Final residual = 1.187078703872591e-13, No Iterations 5
DILUPBiCG:  Solving for Uy, Initial residual = 0.01634355924093385, Final residual = 2.319171346295946e-13, No Iterations 5
DILUPBiCG:  Solving for Uz, Initial residual = 0.008071722968715181, Final residual = 1.8909689491115e-13, No Iterations 5
DILUPBiCG:  Solving for e, Initial residual = 0.01129216095482783, Final residual = 8.833357515641621e-13, No Iterations 4
DILUPBiCG:  Solving for p, Initial residual = 0.01468346954944505, Final residual = 2.148719795355432e-05, No Iterations 1
diagonal:  Solving for rho, Initial residual = 0, Final residual = 0, No Iterations 0
time step continuity errors : sum local = 8.757247356320993e-10, global = -2.615404560527419e-10, cumulative = -1.304027391896785e-08
DILUPBiCG:  Solving for p, Initial residual = 0.0001138581569104729, Final residual = 6.841384890216668e-13, No Iterations 4
diagonal:  Solving for rho, Initial residual = 0, Final residual = 0, No Iterations 0
time step continuity errors : sum local = 2.175941836351631e-16, global = 1.211453331643272e-16, cumulative = -1.304027379782251e-08
DILUPBiCG:  Solving for k, Initial residual = 0.009101842133683645, Final residual = 3.632467912960283e-13, No Iterations 5
ExecutionTime = 1635.17 s  ClockTime = 9137 s

ORIG_COMP_STEP = 18.85035253200022
ORIG_IO_STEP = 54.06573271199977
Courant Number mean: 2.222251236477016e-06 max: 0.1996605519956457
deltaT = 2.744960432784982e-06
Time = 0.0001733

PIMPLE: iteration 1
diagonal:  Solving for rho, Initial residual = 0, Final residual = 0, No Iterations 0
DILUPBiCG:  Solving for Ux, Initial residual = 0.01620154691397256, Final residual = 9.840009493982338e-14, No Iterations 5
DILUPBiCG:  Solving for Uy, Initial residual = 0.01620153739759992, Final residual = 2.252012496942888e-13, No Iterations 5
DILUPBiCG:  Solving for Uz, Initial residual = 0.008008218388246946, Final residual = 1.881717037773749e-13, No Iterations 5
DILUPBiCG:  Solving for e, Initial residual = 0.01123410778262759, Final residual = 9.520258843688584e-13, No Iterations 4
DILUPBiCG:  Solving for p, Initial residual = 0.01462969666896765, Final residual = 2.132886032150517e-05, No Iterations 1
diagonal:  Solving for rho, Initial residual = 0, Final residual = 0, No Iterations 0
time step continuity errors : sum local = 8.8470237167932e-10, global = -2.677972367119153e-10, cumulative = -1.330807103453443e-08
DILUPBiCG:  Solving for p, Initial residual = 9.873135472731397e-05, Final residual = 8.230927742962713e-13, No Iterations 4
diagonal:  Solving for rho, Initial residual = 0, Final residual = 0, No Iterations 0
time step continuity errors : sum local = 2.136603349475257e-16, global = 9.519477511062889e-17, cumulative = -1.330807093933965e-08
DILUPBiCG:  Solving for k, Initial residual = 0.009159103089356737, Final residual = 4.649606051231267e-15, No Iterations 6
ExecutionTime = 1658.41 s  ClockTime = 9216 s

ORIG_COMP_STEP = 23.03979204899952
ORIG_IO_STEP = 59.37977036699976
Courant Number mean: 2.280045291217475e-06 max: 0.1995639764358918
deltaT = 2.750957845006424e-06
Time = 0.000176051

PIMPLE: iteration 1
diagonal:  Solving for rho, Initial residual = 0, Final residual = 0, No Iterations 0
DILUPBiCG:  Solving for Ux, Initial residual = 0.01607374831555027, Final residual = 8.54723525425189e-14, No Iterations 5
DILUPBiCG:  Solving for Uy, Initial residual = 0.01607333788949905, Final residual = 2.21358690460638e-13, No Iterations 5
DILUPBiCG:  Solving for Uz, Initial residual = 0.007961871597518811, Final residual = 1.888867130574845e-13, No Iterations 5
DILUPBiCG:  Solving for e, Initial residual = 0.01117020251881337, Final residual = 5.481722686894147e-13, No Iterations 4
DILUPBiCG:  Solving for p, Initial residual = 0.01457799379627529, Final residual = 2.120723642019664e-05, No Iterations 1
diagonal:  Solving for rho, Initial residual = 0, Final residual = 0, No Iterations 0
time step continuity errors : sum local = 8.951062324720382e-10, global = -2.846700924823178e-10, cumulative = -1.359274103182197e-08
DILUPBiCG:  Solving for p, Initial residual = 0.0001033577753197578, Final residual = 1.257610063118822e-14, No Iterations 5
diagonal:  Solving for rho, Initial residual = 0, Final residual = 0, No Iterations 0
time step continuity errors : sum local = 1.915451152702347e-16, global = 1.249877094531106e-16, cumulative = -1.359274090683426e-08
DILUPBiCG:  Solving for k, Initial residual = 0.009186980710645809, Final residual = 2.898177392775524e-13, No Iterations 5
ExecutionTime = 1666.51 s  ClockTime = 9292 s

ORIG_COMP_STEP = 7.734773997000048
ORIG_IO_STEP = 82.41826118799963
Courant Number mean: 2.339883734611314e-06 max: 0.1996182680501034
deltaT = 2.756218528372294e-06
Time = 0.000178807

PIMPLE: iteration 1
diagonal:  Solving for rho, Initial residual = 0, Final residual = 0, No Iterations 0
DILUPBiCG:  Solving for Ux, Initial residual = 0.01592644694157094, Final residual = 7.717365008878409e-14, No Iterations 5
DILUPBiCG:  Solving for Uy, Initial residual = 0.01592590466361226, Final residual = 2.204088810538425e-13, No Iterations 5
DILUPBiCG:  Solving for Uz, Initial residual = 0.007905056296239235, Final residual = 1.878959671498506e-13, No Iterations 5
DILUPBiCG:  Solving for e, Initial residual = 0.0111713323735908, Final residual = 3.716994246898002e-13, No Iterations 4
DILUPBiCG:  Solving for p, Initial residual = 0.01458209344539505, Final residual = 2.075062332505597e-05, No Iterations 1
diagonal:  Solving for rho, Initial residual = 0, Final residual = 0, No Iterations 0
time step continuity errors : sum local = 8.910371653118874e-10, global = -2.776852995676991e-10, cumulative = -1.387042620640196e-08
DILUPBiCG:  Solving for p, Initial residual = 9.742644985228181e-05, Final residual = 8.055653888992485e-13, No Iterations 4
diagonal:  Solving for rho, Initial residual = 0, Final residual = 0, No Iterations 0
time step continuity errors : sum local = 2.099905619972091e-16, global = -7.91001755477104e-17, cumulative = -1.387042628550213e-08
DILUPBiCG:  Solving for k, Initial residual = 0.009189667232473534, Final residual = 7.892594745129108e-14, No Iterations 5
ExecutionTime = 1680.09 s  ClockTime = 9398 s

ORIG_COMP_STEP = 13.09034855999926
ORIG_IO_STEP = 71.7413314509995
Courant Number mean: 2.399502927026013e-06 max: 0.1994722437264401
deltaT = 2.763510829258239e-06
Time = 0.000181571

PIMPLE: iteration 1
diagonal:  Solving for rho, Initial residual = 0, Final residual = 0, No Iterations 0
DILUPBiCG:  Solving for Ux, Initial residual = 0.01578101994815819, Final residual = 7.242163603224991e-14, No Iterations 5
DILUPBiCG:  Solving for Uy, Initial residual = 0.01578055836354789, Final residual = 2.241633495910488e-13, No Iterations 5
DILUPBiCG:  Solving for Uz, Initial residual = 0.007826490165484035, Final residual = 1.85698666713327e-13, No Iterations 5
DILUPBiCG:  Solving for e, Initial residual = 0.01124214931631034, Final residual = 3.010555071130134e-13, No Iterations 4
DILUPBiCG:  Solving for p, Initial residual = 0.01458820089492475, Final residual = 2.078145102217184e-05, No Iterations 1
diagonal:  Solving for rho, Initial residual = 0, Final residual = 0, No Iterations 0
time step continuity errors : sum local = 9.076461780557237e-10, global = -2.813300764014747e-10, cumulative = -1.415175636190361e-08
DILUPBiCG:  Solving for p, Initial residual = 0.0001012032451229736, Final residual = 9.495579471472401e-13, No Iterations 4
diagonal:  Solving for rho, Initial residual = 0, Final residual = 0, No Iterations 0
time step continuity errors : sum local = 2.282643081306922e-16, global = -1.106212831364351e-16, cumulative = -1.415175647252489e-08
DILUPBiCG:  Solving for k, Initial residual = 0.009177250680475459, Final residual = 2.016035680597139e-14, No Iterations 5
ExecutionTime = 1698.95 s  ClockTime = 9490 s

ORIG_COMP_STEP = 18.50582547200065
ORIG_IO_STEP = 76.60432585200033
Courant Number mean: 2.461568154553294e-06 max: 0.1990696378439998
deltaT = 2.776426238765593e-06
Time = 0.000184347

PIMPLE: iteration 1
diagonal:  Solving for rho, Initial residual = 0, Final residual = 0, No Iterations 0
DILUPBiCG:  Solving for Ux, Initial residual = 0.01565976822829728, Final residual = 7.025459725036617e-14, No Iterations 5
DILUPBiCG:  Solving for Uy, Initial residual = 0.01565957036550326, Final residual = 2.337290606177795e-13, No Iterations 5
DILUPBiCG:  Solving for Uz, Initial residual = 0.007787952969593028, Final residual = 1.837811871859286e-13, No Iterations 5
DILUPBiCG:  Solving for e, Initial residual = 0.01121657727907776, Final residual = 3.252600997706642e-13, No Iterations 4
DILUPBiCG:  Solving for p, Initial residual = 0.01452050554073081, Final residual = 2.10155208152727e-05, No Iterations 1
diagonal:  Solving for rho, Initial residual = 0, Final residual = 0, No Iterations 0
time step continuity errors : sum local = 9.33405712980147e-10, global = -2.925076852440718e-10, cumulative = -1.444426415776897e-08
DILUPBiCG:  Solving for p, Initial residual = 9.999373005458316e-05, Final residual = 9.805260590838671e-13, No Iterations 4
diagonal:  Solving for rho, Initial residual = 0, Final residual = 0, No Iterations 0
time step continuity errors : sum local = 2.039608802912697e-16, global = 2.646780085204831e-17, cumulative = -1.444426413130116e-08
DILUPBiCG:  Solving for k, Initial residual = 0.009160991508694568, Final residual = 2.538458065724888e-14, No Iterations 5
ExecutionTime = 1707.22 s  ClockTime = 9588 s

ORIG_COMP_STEP = 7.776209810001092
ORIG_IO_STEP = 78.77604426400103
Courant Number mean: 2.529860771421017e-06 max: 0.1984620996198965
deltaT = 2.797941011490974e-06
Time = 0.000187145

PIMPLE: iteration 1
diagonal:  Solving for rho, Initial residual = 0, Final residual = 0, No Iterations 0
DILUPBiCG:  Solving for Ux, Initial residual = 0.01562102299042181, Final residual = 7.01904364932944e-14, No Iterations 5
DILUPBiCG:  Solving for Uy, Initial residual = 0.01562082453407989, Final residual = 2.503202653444023e-13, No Iterations 5
DILUPBiCG:  Solving for Uz, Initial residual = 0.007790747830464875, Final residual = 1.839663300627698e-13, No Iterations 5
DILUPBiCG:  Solving for e, Initial residual = 0.01124807834110474, Final residual = 1.788764990621818e-14, No Iterations 5
DILUPBiCG:  Solving for p, Initial residual = 0.0146298127309629, Final residual = 2.123159577438177e-05, No Iterations 1
diagonal:  Solving for rho, Initial residual = 0, Final residual = 0, No Iterations 0
time step continuity errors : sum local = 9.588398172777951e-10, global = -2.995241971180047e-10, cumulative = -1.474378832841917e-08
DILUPBiCG:  Solving for p, Initial residual = 9.894874132281555e-05, Final residual = 9.860887671747165e-13, No Iterations 4
diagonal:  Solving for rho, Initial residual = 0, Final residual = 0, No Iterations 0
time step continuity errors : sum local = 2.106240723503202e-16, global = 2.906559401046646e-17, cumulative = -1.474378829935357e-08
DILUPBiCG:  Solving for k, Initial residual = 0.009179772282912488, Final residual = 2.240143642003815e-14, No Iterations 5
ExecutionTime = 1720.27 s  ClockTime = 9693 s

ORIG_COMP_STEP = 12.56553526899916
ORIG_IO_STEP = 74.20244040000034
Courant Number mean: 2.607550527148367e-06 max: 0.2007293305383781
deltaT = 2.7877749644126e-06
Time = 0.000189933

PIMPLE: iteration 1
diagonal:  Solving for rho, Initial residual = 0, Final residual = 0, No Iterations 0
DILUPBiCG:  Solving for Ux, Initial residual = 0.01545009081728938, Final residual = 6.656171416517345e-14, No Iterations 5
DILUPBiCG:  Solving for Uy, Initial residual = 0.01544963289083071, Final residual = 2.511965431377323e-13, No Iterations 5
DILUPBiCG:  Solving for Uz, Initial residual = 0.007700143540007949, Final residual = 1.744794701353223e-13, No Iterations 5
DILUPBiCG:  Solving for e, Initial residual = 0.01123422344230923, Final residual = 1.76686251107921e-14, No Iterations 5
DILUPBiCG:  Solving for p, Initial residual = 0.01452895604074247, Final residual = 2.019578951253844e-05, No Iterations 1
diagonal:  Solving for rho, Initial residual = 0, Final residual = 0, No Iterations 0
time step continuity errors : sum local = 9.272308136828902e-10, global = -2.73116435853988e-10, cumulative = -1.501690473520756e-08
DILUPBiCG:  Solving for p, Initial residual = 0.0001006384341409137, Final residual = 1.368944823412586e-14, No Iterations 5
diagonal:  Solving for rho, Initial residual = 0, Final residual = 0, No Iterations 0
time step continuity errors : sum local = 1.644768626459123e-16, global = 2.08675181481386e-17, cumulative = -1.501690471434005e-08
DILUPBiCG:  Solving for k, Initial residual = 0.009120968354419506, Final residual = 6.757386627440562e-15, No Iterations 5
ExecutionTime = 1737.53 s  ClockTime = 9796 s

ORIG_COMP_STEP = 16.84688890399957
ORIG_IO_STEP = 84.29784180600109
Courant Number mean: 2.656078066056226e-06 max: 0.2018816436766119
deltaT = 2.761791427533886e-06
Time = 0.000192695

PIMPLE: iteration 1
diagonal:  Solving for rho, Initial residual = 0, Final residual = 0, No Iterations 0
DILUPBiCG:  Solving for Ux, Initial residual = 0.01520703483293124, Final residual = 6.102809269903522e-14, No Iterations 5
DILUPBiCG:  Solving for Uy, Initial residual = 0.01520670312683162, Final residual = 2.376548659443908e-13, No Iterations 5
DILUPBiCG:  Solving for Uz, Initial residual = 0.007564558835913024, Final residual = 1.593877854759629e-13, No Iterations 5
DILUPBiCG:  Solving for e, Initial residual = 0.01109856992011298, Final residual = 1.587168616038443e-14, No Iterations 5
DILUPBiCG:  Solving for p, Initial residual = 0.01439654855634151, Final residual = 1.926967532934689e-05, No Iterations 1
diagonal:  Solving for rho, Initial residual = 0, Final residual = 0, No Iterations 0
time step continuity errors : sum local = 8.991361872396187e-10, global = -2.613167653590755e-10, cumulative = -1.527822147969912e-08
DILUPBiCG:  Solving for p, Initial residual = 9.370719889024749e-05, Final residual = 1.135482531566634e-14, No Iterations 5
diagonal:  Solving for rho, Initial residual = 0, Final residual = 0, No Iterations 0
time step continuity errors : sum local = 1.643857264405957e-16, global = -2.645610182802162e-17, cumulative = -1.527822150615522e-08
DILUPBiCG:  Solving for k, Initial residual = 0.009041982642515193, Final residual = 1.220813657690579e-14, No Iterations 5
ExecutionTime = 1748.61 s  ClockTime = 9902 s

ORIG_COMP_STEP = 10.57213351799874
ORIG_IO_STEP = 74.416356361
Courant Number mean: 2.68767369525499e-06 max: 0.2016290007265227
deltaT = 2.739478366288982e-06
Time = 0.000195434

PIMPLE: iteration 1
diagonal:  Solving for rho, Initial residual = 0, Final residual = 0, No Iterations 0
DILUPBiCG:  Solving for Ux, Initial residual = 0.01496848707017993, Final residual = 5.636238530999168e-14, No Iterations 5
DILUPBiCG:  Solving for Uy, Initial residual = 0.01496826673637861, Final residual = 2.220476279676691e-13, No Iterations 5
DILUPBiCG:  Solving for Uz, Initial residual = 0.007422080994039178, Final residual = 1.459713923105714e-13, No Iterations 5
DILUPBiCG:  Solving for e, Initial residual = 0.01099304800593996, Final residual = 1.526757236716453e-14, No Iterations 5
DILUPBiCG:  Solving for p, Initial residual = 0.01416332579400444, Final residual = 1.830056584483403e-05, No Iterations 1
diagonal:  Solving for rho, Initial residual = 0, Final residual = 0, No Iterations 0
time step continuity errors : sum local = 8.67673783435111e-10, global = -2.518850227312075e-10, cumulative = -1.553010652888643e-08
DILUPBiCG:  Solving for p, Initial residual = 9.861363317004668e-05, Final residual = 9.370459010343959e-15, No Iterations 5
diagonal:  Solving for rho, Initial residual = 0, Final residual = 0, No Iterations 0
time step continuity errors : sum local = 1.624368488479478e-16, global = 1.506082148779596e-17, cumulative = -1.553010651382561e-08
DILUPBiCG:  Solving for k, Initial residual = 0.008987124118952167, Final residual = 5.465314005900842e-14, No Iterations 5
ExecutionTime = 1761.89 s  ClockTime = 9993 s

ORIG_COMP_STEP = 12.88909137700102
ORIG_IO_STEP = 78.70161397099946
Courant Number mean: 2.721121875835126e-06 max: 0.2007890187157762
deltaT = 2.728713336825252e-06
Time = 0.000198163

PIMPLE: iteration 1
diagonal:  Solving for rho, Initial residual = 0, Final residual = 0, No Iterations 0
DILUPBiCG:  Solving for Ux, Initial residual = 0.0147790310118205, Final residual = 5.414234984966741e-14, No Iterations 5
DILUPBiCG:  Solving for Uy, Initial residual = 0.01477934923915327, Final residual = 2.104091178031826e-13, No Iterations 5
DILUPBiCG:  Solving for Uz, Initial residual = 0.00732535616582609, Final residual = 1.372486946793791e-13, No Iterations 5
DILUPBiCG:  Solving for e, Initial residual = 0.01087754625951071, Final residual = 1.399666118094221e-14, No Iterations 5
DILUPBiCG:  Solving for p, Initial residual = 0.01402156170364902, Final residual = 1.794097804817513e-05, No Iterations 1
diagonal:  Solving for rho, Initial residual = 0, Final residual = 0, No Iterations 0
time step continuity errors : sum local = 8.642835724083785e-10, global = -2.531676674153822e-10, cumulative = -1.578327418124099e-08
DILUPBiCG:  Solving for p, Initial residual = 9.102916790914876e-05, Final residual = 1.886506603451385e-14, No Iterations 5
diagonal:  Solving for rho, Initial residual = 0, Final residual = 0, No Iterations 0
time step continuity errors : sum local = 1.604535179892275e-16, global = -2.470500444027414e-17, cumulative = -1.578327420594599e-08
DILUPBiCG:  Solving for k, Initial residual = 0.008970872741070376, Final residual = 2.133287035160466e-13, No Iterations 5
ExecutionTime = 1780.45 s  ClockTime = 10092 s

ORIG_COMP_STEP = 18.15829054599999
ORIG_IO_STEP = 70.66642473499996
Courant Number mean: 2.765884421684563e-06 max: 0.2003309246608173
deltaT = 2.724205802419428e-06
Time = 0.000200887

PIMPLE: iteration 1
diagonal:  Solving for rho, Initial residual = 0, Final residual = 0, No Iterations 0
DILUPBiCG:  Solving for Ux, Initial residual = 0.01464955562178675, Final residual = 5.318800142522769e-14, No Iterations 5
DILUPBiCG:  Solving for Uy, Initial residual = 0.01464998792607229, Final residual = 2.035164924545601e-13, No Iterations 5
DILUPBiCG:  Solving for Uz, Initial residual = 0.007273341262649695, Final residual = 1.317043092675705e-13, No Iterations 5
DILUPBiCG:  Solving for e, Initial residual = 0.01085494948376039, Final residual = 1.725183010363946e-14, No Iterations 5
DILUPBiCG:  Solving for p, Initial residual = 0.01395487848119013, Final residual = 1.773168703549834e-05, No Iterations 1
diagonal:  Solving for rho, Initial residual = 0, Final residual = 0, No Iterations 0
time step continuity errors : sum local = 8.678461498196286e-10, global = -2.548671049760277e-10, cumulative = -1.603814131092202e-08
DILUPBiCG:  Solving for p, Initial residual = 9.014468488540725e-05, Final residual = 8.346053327794794e-15, No Iterations 5
diagonal:  Solving for rho, Initial residual = 0, Final residual = 0, No Iterations 0
time step continuity errors : sum local = 1.707008345176947e-16, global = 8.274271879767263e-17, cumulative = -1.60381412281793e-08
DILUPBiCG:  Solving for k, Initial residual = 0.008982129366674451, Final residual = 1.063160001731702e-13, No Iterations 5
ExecutionTime = 1801.45 s  ClockTime = 10198 s

ORIG_COMP_STEP = 20.62596009800109
ORIG_IO_STEP = 69.09712409299937
End

ORIG_IO_TIME = 6737.52843924549
ORIG_COMP_TIME = 850.2746891225975
Finalising parallel run
