/*---------------------------------------------------------------------------*\
| =========                 |                                                 |
| \\      /  F ield         | OpenFOAM: The Open Source CFD Toolbox           |
|  \\    /   O peration     | Version:  v1912                                 |
|   \\  /    A nd           | Website:  www.openfoam.com                      |
|    \\/     M anipulation  |                                                 |
\*---------------------------------------------------------------------------*/
Build  : _f3950763fe-20191219 OPENFOAM=1912
Arch   : "LSB;label=32;scalar=64"
Exec   : rhoPimpleAPIO_METRICS -parallel
Date   : Oct 27 2020
Time   : 14:04:12
Host   : r42c4t1n2
PID    : 152045
I/O    : uncollated
Case   : /lustre/cray/ws9/2/ws/hpcmcast-ashee2/HAWK/apio_64M/2048
nProcs : 2048
Hosts  :
(
    (r42c4t1n2 128)
    (r42c4t1n3 128)
    (r42c4t1n4 128)
    (r42c4t2n1 128)
    (r42c4t2n2 128)
    (r42c4t2n3 128)
    (r42c4t2n4 128)
    (r42c4t3n1 128)
    (r42c4t3n3 128)
    (r42c4t3n4 128)
    (r42c4t4n1 128)
    (r42c4t4n2 128)
    (r42c4t4n3 128)
    (r43c2t3n2 128)
    (r43c2t3n3 128)
    (r43c2t3n4 128)
)
Pstream initialized with:
    floatTransfer      : 0
    nProcsSimpleSum    : 0
    commsType          : nonBlocking
    polling iterations : 0
trapFpe: Floating point exception trapping enabled (FOAM_SIGFPE).
fileModificationChecking : Monitoring run-time modified files using timeStampMaster (fileModificationSkew 10)
allowSystemOperations : Allowing user-supplied system call operations

// * * * * * * * * * * * * * * * * * * * * * * * * * * * * * * * * * * * * * //
Create time

Create mesh for time = 0


PIMPLE: Operating solver in PISO mode

Reading thermophysical properties

Selecting thermodynamics package 
{
    type            hePsiThermo;
    mixture         pureMixture;
    transport       const;
    thermo          eConst;
    equationOfState perfectGas;
    specie          specie;
    energy          sensibleInternalEnergy;
}

Reading field U

Reading/calculating face flux field phi

--> FOAM Warning : 
    From function Foam::pressureControl::pressureControl(const volScalarField&, const volScalarField&, const Foam::dictionary&, bool)
    in file cfdTools/general/pressureControl/pressureControl.C at line 123
    Reading "/lustre/cray/ws9/2/ws/hpcmcast-ashee2/HAWK/apio_64M/2048/system/fvSolution.PIMPLE"
    'rhoMax' specified rather than 'pMax' or 'pMaxFactor'
    This is supported for backward-compatibility but 'pMax' or 'pMaxFactor' are more reliable.
--> FOAM Warning : 
    From function Foam::pressureControl::pressureControl(const volScalarField&, const volScalarField&, const Foam::dictionary&, bool)
    in file cfdTools/general/pressureControl/pressureControl.C at line 178
    Reading "/lustre/cray/ws9/2/ws/hpcmcast-ashee2/HAWK/apio_64M/2048/system/fvSolution.PIMPLE"
    'rhoMin' specified rather than 'pMin' or 'pMinFactor'
    This is supported for backward-compatibility but 'pMin' or 'pMinFactor' are more reliable.
pressureControl
    pMax 1726187.557059955
    pMin 4747.015781914877

Creating turbulence model

Selecting turbulence model type LES
Selecting LES turbulence model kEqn
Selecting LES delta type cubeRootVol
LES
{
    LESModel        kEqn;
    turbulence      on;
    printCoeffs     on;
    delta           cubeRootVol;
    cubeRootVolCoeffs
    {
        deltaCoeff      1;
    }
    PrandtlCoeffs
    {
        delta           cubeRootVol;
        cubeRootVolCoeffs
        {
            deltaCoeff      1;
        }
        smoothCoeffs
        {
            delta           cubeRootVol;
            cubeRootVolCoeffs
            {
                deltaCoeff      1;
            }
            maxDeltaRatio   1.1;
        }
        Cdelta          0.158;
    }
    vanDriestCoeffs
    {
        delta           cubeRootVol;
        cubeRootVolCoeffs
        {
            deltaCoeff      1;
        }
        smoothCoeffs
        {
            delta           cubeRootVol;
            cubeRootVolCoeffs
            {
                deltaCoeff      1;
            }
            maxDeltaRatio   1.1;
        }
        Aplus           26;
        Cdelta          0.158;
    }
    smoothCoeffs
    {
        delta           cubeRootVol;
        cubeRootVolCoeffs
        {
            deltaCoeff      1;
        }
        maxDeltaRatio   1.1;
    }
    Ce              1.048;
    Ck              0.094;
}

Creating field dpdt

Creating field kinetic energy K

No MRF models present

APIO_procNo = 36
APIO_procNo = 37
APIO_procNo = 38
APIO_procNo = 39
APIO_procNo = 40
APIO_procNo = 41
APIO_procNo = 42
APIO_procNo = 43
APIO_procNo = 44
APIO_procNo = 45
APIO_procNo = 46
APIO_procNo = 47
APIO_procNo = 48
APIO_procNo = 49
APIO_procNo = 50
APIO_procNo = 51
APIO_procNo = 52
APIO_procNo = 53
APIO_procNo = 54
APIO_procNo = 55
APIO_procNo = 56
APIO_procNo = 57
writeThread 57 on CPU 185
APIO_procNo = 58
APIO_procNo = 59
APIO_procNo = 60
APIO_procNo = 61
APIO_procNo = 62
APIO_procNo = 63
APIO_procNo = 64
APIO_procNo = 65
APIO_procNo = 66
APIO_procNo = 67
APIO_procNo = 68
APIO_procNo = 69
APIO_procNo = 70
APIO_procNo = 71
APIO_procNo = 72
APIO_procNo = 73
APIO_procNo = 74
APIO_procNo = 75
APIO_procNo = 76
APIO_procNo = 77
APIO_procNo = 78
APIO_procNo = 79
APIO_procNo = 80
APIO_procNo = 81
APIO_procNo = 82
APIO_procNo = 83
APIO_procNo = 84
APIO_procNo = 85
APIO_procNo = 86
APIO_procNo = 87
APIO_procNo = 88
APIO_procNo = 89
APIO_procNo = 90
APIO_procNo = 91
APIO_procNo = 92
APIO_procNo = 93
APIO_procNo = 94
APIO_procNo = 95
APIO_procNo = 96
APIO_procNo = 97
APIO_procNo = 98
APIO_procNo = 99
APIO_procNo = 100
APIO_procNo = 101
APIO_procNo = 102
APIO_procNo = 103
APIO_procNo = 104
APIO_procNo = 105
APIO_procNo = 106
APIO_procNo = 107
APIO_procNo = 108
APIO_procNo = 109
APIO_procNo = 110
APIO_procNo = 111
APIO_procNo = 112
writeThread 112 on CPU 240
APIO_procNo = 113
writeThread 113 on CPU 241
APIO_procNo = 114
writeThread 114 on CPU 242
APIO_procNo = 115
writeThread 115 on CPU 243
APIO_procNo = 116
writeThread 116 on CPU 244
APIO_procNo = 117
writeThread 117 on CPU 245
APIO_procNo = 118
APIO_procNo = 119
writeThread 119 on CPU 247
APIO_procNo = 120
APIO_procNo = 121
APIO_procNo = 122
writeThread 122 on CPU 250
APIO_procNo = 123
writeThread 123 on CPU 251
APIO_procNo = 124
writeThread 124 on CPU 252
APIO_procNo = 125
writeThread 125 on CPU 253
APIO_procNo = 126
writeThread 126 on CPU 254
APIO_procNo = 127
writeThread 127 on CPU 255
No finite volume options present
APIO_procNo = 0
APIO_masterNo = 0
APIO_procNo = 1
writeThread 1 on CPU 129
APIO_procNo = 2
writeThread 2 on CPU 130
APIO_procNo = 3
writeThread 3 on CPU 131
APIO_procNo = 4
writeThread 4 on CPU 132
APIO_procNo = 5
writeThread 5 on CPU 133
APIO_procNo = 6
writeThread 6 on CPU 134
APIO_procNo = 7
writeThread 7 on CPU 135
APIO_procNo = 8
writeThread 8 on CPU 136
APIO_procNo = 9
writeThread 9 on CPU 137
APIO_procNo = 10
writeThread 10 on CPU 138
APIO_procNo = 11
writeThread 11 on CPU 139
APIO_procNo = 12
writeThread 12 on CPU 140
APIO_procNo = 13
writeThread 13 on CPU 141
APIO_procNo = 14
writeThread 14 on CPU 142
APIO_procNo = 15
writeThread 15 on CPU 143
APIO_procNo = 16
writeThread 16 on CPU 144
APIO_procNo = 17
writeThread 17 on CPU 145
APIO_procNo = 18
writeThread 18 on CPU 146
APIO_procNo = 19
writeThread 19 on CPU 147
APIO_procNo = 20
writeThread 20 on CPU 148
APIO_procNo = 21
writeThread 21 on CPU 149
APIO_procNo = 22
writeThread 22 on CPU 150
APIO_procNo = 23
writeThread 23 on CPU 151
APIO_procNo = 24
writeThread 24 on CPU 152
APIO_procNo = 25
writeThread 25 on CPU 153
APIO_procNo = 26
writeThread 26 on CPU 154
APIO_procNo = 27
writeThread 27 on CPU 155
APIO_procNo = 28
writeThread 28 on CPU 156
APIO_procNo = 29
writeThread 29 on CPU 157
APIO_procNo = 30
writeThread 30 on CPU 158
APIO_procNo = 31
writeThread 31 on CPU 159
APIO_procNo = 32
writeThread 32 on CPU 160
APIO_procNo = 33
writeThread 33 on CPU 161
APIO_procNo = 34
writeThread 34 on CPU 162
APIO_procNo = 35
writeThread 35 on CPU 163
writeThread 36 on CPU 164
writeThread 37 on CPU 165
writeThread 38 on CPU 166
writeThread 39 on CPU 167
writeThread 43 on CPU 171
writeThread 44 on CPU 172
writeThread 45 on CPU 173
writeThread 46 on CPU 174
writeThread 47 on CPU 175
writeThread 48 on CPU 176
writeThread 49 on CPU 177
writeThread 50 on CPU 178
writeThread 51 on CPU 179
writeThread 52 on CPU 180
writeThread 53 on CPU 181
writeThread 54 on CPU 182
writeThread 55 on CPU 183
writeThread 56 on CPU 184
writeThread 58 on CPU 186
writeThread 59 on CPU 187
writeThread 60 on CPU 188
writeThread 61 on CPU 189
writeThread 62 on CPU 190
writeThread 63 on CPU 191
writeThread 64 on CPU 192
writeThread 65 on CPU 193
writeThread 66 on CPU 194
writeThread 67 on CPU 195
writeThread 68 on CPU 196
writeThread 69 on CPU 197
writeThread 70 on CPU 198
writeThread 71 on CPU 199
writeThread 72 on CPU 200
writeThread 73 on CPU 201
writeThread 74 on CPU 202
writeThread 75 on CPU 203
writeThread 76 on CPU 204
writeThread 77 on CPU 205
writeThread 78 on CPU 206
writeThread 79 on CPU 207
writeThread 80 on CPU 208
writeThread 81 on CPU 209
writeThread 82 on CPU 210
writeThread 83 on CPU 211
writeThread 84 on CPU 212
writeThread 85 on CPU 213
writeThread 86 on CPU 214
writeThread 87 on CPU 215
writeThread 88 on CPU 216
writeThread 89 on CPU 217
writeThread 90 on CPU 218
writeThread 91 on CPU 219
writeThread 92 on CPU 220
writeThread 93 on CPU 221
writeThread 94 on CPU 222
writeThread 95 on CPU 223
writeThread 96 on CPU 224
writeThread 97 on CPU 225
writeThread 98 on CPU 226
writeThread 99 on CPU 227
writeThread 100 on CPU 228
writeThread 101 on CPU 229
writeThread 102 on CPU 230
writeThread 103 on CPU 231
writeThread 104 on CPU 232
writeThread 105 on CPU 233
writeThread 106 on CPU 234
writeThread 107 on CPU 235
writeThread 108 on CPU 236
writeThread 109 on CPU 237
writeThread 110 on CPU 238
writeThread 111 on CPU 239
writeThread 118 on CPU 246
writeThread 120 on CPU 248
writeThread 121 on CPU 249
writeThread 0 on CPU 128
writeThread 40 on CPU 168
writeThread 41 on CPU 169
writeThread 42 on CPU 170
APIO_procNo = 512
APIO_procNo = 896
APIO_procNo = 256
APIO_procNo = 768
APIO_procNo = 1664
APIO_procNo = 1152
APIO_procNo = 1792
APIO_procNo = 1280
APIO_procNo = 384
APIO_procNo = 1408
APIO_procNo = 128
writeThread 128 on CPU 128
APIO_procNo = 640
APIO_procNo = 769
APIO_procNo = 1536
writeThread 1536 on CPU 128
APIO_procNo = 1024
APIO_procNo = 1665
APIO_procNo = 1153
APIO_procNo = 1920
APIO_procNo = 385
APIO_procNo = 513
APIO_procNo = 897
APIO_procNo = 641
APIO_procNo = 257
APIO_procNo = 770
APIO_procNo = 1537
writeThread 1537 on CPU 129
APIO_procNo = 1025
APIO_procNo = 1666
APIO_procNo = 1154
APIO_procNo = 1921
APIO_procNo = 1793
APIO_procNo = 1281
APIO_procNo = 386
APIO_procNo = 1409
APIO_procNo = 129
writeThread 129 on CPU 129
APIO_procNo = 514
APIO_procNo = 898
APIO_procNo = 642
APIO_procNo = 258
APIO_procNo = 771
APIO_procNo = 1538
writeThread 1538 on CPU 130
APIO_procNo = 1026
APIO_procNo = 1667
APIO_procNo = 1155
APIO_procNo = 1922
APIO_procNo = 1794
APIO_procNo = 1282
APIO_procNo = 387
APIO_procNo = 1410
APIO_procNo = 130
writeThread 130 on CPU 130
APIO_procNo = 515
APIO_procNo = 899
APIO_procNo = 643
APIO_procNo = 259
APIO_procNo = 772
APIO_procNo = 1539
writeThread 1539 on CPU 131
APIO_procNo = 1027
APIO_procNo = 1668
APIO_procNo = 1156
APIO_procNo = 1923
APIO_procNo = 1795
APIO_procNo = 1283
APIO_procNo = 388
writeThread 388 on CPU 132
APIO_procNo = 1411
APIO_procNo = 131
writeThread 131 on CPU 131
APIO_procNo = 516
APIO_procNo = 900
APIO_procNo = 644
APIO_procNo = 260
APIO_procNo = 773
APIO_procNo = 1540
writeThread 1540 on CPU 132
APIO_procNo = 1028
APIO_procNo = 1669
APIO_procNo = 1157
APIO_procNo = 1924
APIO_procNo = 1796
APIO_procNo = 1284
APIO_procNo = 389
writeThread 389 on CPU 133
APIO_procNo = 1412
APIO_procNo = 132
writeThread 132 on CPU 132
APIO_procNo = 517
APIO_procNo = 901
APIO_procNo = 645
APIO_procNo = 261
APIO_procNo = 774
APIO_procNo = 1541
writeThread 1541 on CPU 133
APIO_procNo = 1029
APIO_procNo = 1670
APIO_procNo = 1158
APIO_procNo = 1925
APIO_procNo = 1797
APIO_procNo = 1285
APIO_procNo = 390
writeThread 390 on CPU 134
APIO_procNo = 1413
APIO_procNo = 133
writeThread 133 on CPU 133
APIO_procNo = 518
APIO_procNo = 902
APIO_procNo = 646
APIO_procNo = 262
APIO_procNo = 775
APIO_procNo = 1542
writeThread 1542 on CPU 134
APIO_procNo = 1030
APIO_procNo = 1671
APIO_procNo = 1159
APIO_procNo = 1926
APIO_procNo = 1798
APIO_procNo = 1286
APIO_procNo = 391
writeThread 391 on CPU 135
APIO_procNo = 1414
APIO_procNo = 134
APIO_procNo = 519
APIO_procNo = 903
APIO_procNo = 647
APIO_procNo = 263
APIO_procNo = 776
APIO_procNo = 1543
writeThread 1543 on CPU 135
APIO_procNo = 1031
APIO_procNo = 1672
APIO_procNo = 1160
APIO_procNo = 1927
APIO_procNo = 1799
APIO_procNo = 1287
APIO_procNo = 392
APIO_procNo = 1415
APIO_procNo = 135
writeThread 135 on CPU 135
Courant Number mean: 2.06605644347511e-11 max: 2.085039370078742e-05
APIO_procNo = 520
APIO_procNo = 904
APIO_procNo = 648
APIO_procNo = 264
APIO_procNo = 777
APIO_procNo = 1544
writeThread 1544 on CPU 136
APIO_procNo = 1032
APIO_procNo = 1673
APIO_procNo = 1161
APIO_procNo = 1928
APIO_procNo = 1800
APIO_procNo = 1288
APIO_procNo = 393
APIO_procNo = 1416
APIO_procNo = 136
writeThread 136 on CPU 136
APIO_procNo = 521
APIO_procNo = 905
APIO_procNo = 649
APIO_procNo = 265
APIO_procNo = 778
APIO_procNo = 1545
writeThread 1545 on CPU 137
APIO_procNo = 1033
APIO_procNo = 1674
APIO_procNo = 1162
APIO_procNo = 1929
APIO_procNo = 1801
APIO_procNo = 1289
APIO_procNo = 394
APIO_procNo = 1417
APIO_procNo = 137
writeThread 137 on CPU 137
APIO_procNo = 522
APIO_procNo = 906
APIO_procNo = 650
APIO_procNo = 266
APIO_procNo = 779
APIO_procNo = 1546
writeThread 1546 on CPU 138
APIO_procNo = 1034
APIO_procNo = 1675
APIO_procNo = 1163
APIO_procNo = 1930
APIO_procNo = 1802
APIO_procNo = 1290
APIO_procNo = 395
APIO_procNo = 1418
APIO_procNo = 138
APIO_procNo = 523
APIO_procNo = 907
APIO_procNo = 651
APIO_procNo = 267
APIO_procNo = 780
APIO_procNo = 1547
writeThread 1547 on CPU 139
APIO_procNo = 1035
APIO_procNo = 1676
APIO_procNo = 1164
APIO_procNo = 1931
APIO_procNo = 1803
APIO_procNo = 1291
APIO_procNo = 396
APIO_procNo = 1419
APIO_procNo = 139
writeThread 139 on CPU 139
APIO_procNo = 524
APIO_procNo = 908
APIO_procNo = 652
APIO_procNo = 268
APIO_procNo = 781
APIO_procNo = 1548
writeThread 1548 on CPU 140
APIO_procNo = 1036
APIO_procNo = 1677
APIO_procNo = 1165
APIO_procNo = 1932
APIO_procNo = 1804
APIO_procNo = 1292
APIO_procNo = 397
APIO_procNo = 1420
APIO_procNo = 140
APIO_procNo = 525
APIO_procNo = 909
APIO_procNo = 653
APIO_procNo = 269
APIO_procNo = 782
APIO_procNo = 1549
writeThread 1549 on CPU 141
APIO_procNo = 1037
APIO_procNo = 1678
APIO_procNo = 1166
APIO_procNo = 1933
APIO_procNo = 1805
APIO_procNo = 1293
APIO_procNo = 398
APIO_procNo = 1421
APIO_procNo = 141
APIO_procNo = 526
APIO_procNo = 910
APIO_procNo = 654
APIO_procNo = 270
APIO_procNo = 783
APIO_procNo = 1550
writeThread 1550 on CPU 142
APIO_procNo = 1038
APIO_procNo = 1679
APIO_procNo = 1167
APIO_procNo = 1934
APIO_procNo = 1806
APIO_procNo = 1294
APIO_procNo = 399
APIO_procNo = 1422
APIO_procNo = 142
writeThread 142 on CPU 142
APIO_procNo = 527
APIO_procNo = 911
APIO_procNo = 655
APIO_procNo = 271
APIO_procNo = 784
writeThread 784 on CPU 144
APIO_procNo = 1551
writeThread 1551 on CPU 143
APIO_procNo = 1039
APIO_procNo = 1680
APIO_procNo = 1168
APIO_procNo = 1935
APIO_procNo = 1807
APIO_procNo = 1295
APIO_procNo = 400
APIO_procNo = 1423
APIO_procNo = 143
writeThread 143 on CPU 143
APIO_procNo = 528
APIO_procNo = 912
writeThread 912 on CPU 144
APIO_procNo = 656
APIO_procNo = 272
APIO_procNo = 785
writeThread 785 on CPU 145
APIO_procNo = 1552
writeThread 1552 on CPU 144
APIO_procNo = 1040
APIO_procNo = 1681
APIO_procNo = 1169
APIO_procNo = 1936
writeThread 1936 on CPU 144
APIO_procNo = 1808
APIO_procNo = 1296
APIO_procNo = 401
APIO_procNo = 1424
writeThread 1424 on CPU 144
APIO_procNo = 144
writeThread 144 on CPU 144
APIO_procNo = 529
APIO_procNo = 913
writeThread 913 on CPU 145
APIO_procNo = 657
APIO_procNo = 273
APIO_procNo = 786
writeThread 786 on CPU 146
APIO_procNo = 1553
writeThread 1553 on CPU 145
APIO_procNo = 1041
APIO_procNo = 1682
APIO_procNo = 1170
APIO_procNo = 1937
writeThread 1937 on CPU 145
APIO_procNo = 1809
APIO_procNo = 1297
APIO_procNo = 402
APIO_procNo = 1425
APIO_procNo = 145
APIO_procNo = 530
APIO_procNo = 914
writeThread 914 on CPU 146
APIO_procNo = 658
APIO_procNo = 274
APIO_procNo = 787
writeThread 787 on CPU 147
APIO_procNo = 1554
writeThread 1554 on CPU 146
APIO_procNo = 1042
APIO_procNo = 1683
APIO_procNo = 1171
APIO_procNo = 1938
writeThread 1938 on CPU 146
APIO_procNo = 1810
APIO_procNo = 1298
APIO_procNo = 403
APIO_procNo = 1426
writeThread 1426 on CPU 146
APIO_procNo = 146
writeThread 146 on CPU 146
APIO_procNo = 531
APIO_procNo = 915
writeThread 915 on CPU 147
APIO_procNo = 659
APIO_procNo = 275
APIO_procNo = 788
APIO_procNo = 1555
writeThread 1555 on CPU 147
APIO_procNo = 1043
APIO_procNo = 1684
APIO_procNo = 1172
APIO_procNo = 1939
writeThread 1939 on CPU 147
APIO_procNo = 1811
APIO_procNo = 1299
APIO_procNo = 404
APIO_procNo = 1427
writeThread 1427 on CPU 147
APIO_procNo = 147
APIO_procNo = 532
APIO_procNo = 916
writeThread 916 on CPU 148
APIO_procNo = 660
APIO_procNo = 276
APIO_procNo = 789
APIO_procNo = 1556
writeThread 1556 on CPU 148
APIO_procNo = 1044
APIO_procNo = 1685
APIO_procNo = 1173
APIO_procNo = 1940
writeThread 1940 on CPU 148
APIO_procNo = 1812
APIO_procNo = 1300
APIO_procNo = 405
APIO_procNo = 1428
writeThread 1428 on CPU 148
APIO_procNo = 148
APIO_procNo = 533
APIO_procNo = 917
writeThread 917 on CPU 149
APIO_procNo = 661
APIO_procNo = 277
APIO_procNo = 790
APIO_procNo = 1557
writeThread 1557 on CPU 149
APIO_procNo = 1045
APIO_procNo = 1686
APIO_procNo = 1174
APIO_procNo = 1941
writeThread 1941 on CPU 149
APIO_procNo = 1813
APIO_procNo = 1301
APIO_procNo = 406
APIO_procNo = 1429
writeThread 1429 on CPU 149
APIO_procNo = 149
APIO_procNo = 534
APIO_procNo = 918
writeThread 918 on CPU 150
APIO_procNo = 662
APIO_procNo = 278
APIO_procNo = 791
APIO_procNo = 1558
writeThread 1558 on CPU 150
APIO_procNo = 1046
APIO_procNo = 1687
APIO_procNo = 1175
APIO_procNo = 1942
writeThread 1942 on CPU 150
APIO_procNo = 1814
APIO_procNo = 1302
APIO_procNo = 407
APIO_procNo = 1430
writeThread 1430 on CPU 150
APIO_procNo = 150
APIO_procNo = 535
APIO_procNo = 919
writeThread 919 on CPU 151
APIO_procNo = 663
APIO_procNo = 279
APIO_procNo = 792
APIO_procNo = 1559
writeThread 1559 on CPU 151
APIO_procNo = 1047
APIO_procNo = 1688
APIO_procNo = 1176
APIO_procNo = 1943
writeThread 1943 on CPU 151
APIO_procNo = 1815
APIO_procNo = 1303
APIO_procNo = 408
writeThread 408 on CPU 152
APIO_procNo = 1431
writeThread 1431 on CPU 151
APIO_procNo = 151
APIO_procNo = 536
APIO_procNo = 920
writeThread 920 on CPU 152
APIO_procNo = 664
APIO_procNo = 280
APIO_procNo = 793
APIO_procNo = 1560
writeThread 1560 on CPU 152
APIO_procNo = 1048
APIO_procNo = 1689
APIO_procNo = 1177
APIO_procNo = 1944
writeThread 1944 on CPU 152
APIO_procNo = 1816
APIO_procNo = 1304
APIO_procNo = 409
writeThread 409 on CPU 153
APIO_procNo = 1432
writeThread 1432 on CPU 152
APIO_procNo = 152
APIO_procNo = 537
APIO_procNo = 921
writeThread 921 on CPU 153
APIO_procNo = 665
APIO_procNo = 281
APIO_procNo = 794
APIO_procNo = 1561
writeThread 1561 on CPU 153
APIO_procNo = 1049
APIO_procNo = 1690
APIO_procNo = 1178
APIO_procNo = 1945
writeThread 1945 on CPU 153
APIO_procNo = 1817
APIO_procNo = 1305
APIO_procNo = 410
writeThread 410 on CPU 154
APIO_procNo = 1433
writeThread 1433 on CPU 153
APIO_procNo = 153
APIO_procNo = 538
APIO_procNo = 922
writeThread 922 on CPU 154
APIO_procNo = 666
APIO_procNo = 282
APIO_procNo = 795
APIO_procNo = 1562
writeThread 1562 on CPU 154
APIO_procNo = 1050
APIO_procNo = 1691
APIO_procNo = 1179
APIO_procNo = 1946
writeThread 1946 on CPU 154
APIO_procNo = 1818
APIO_procNo = 1306
APIO_procNo = 411
writeThread 411 on CPU 155
APIO_procNo = 1434
writeThread 1434 on CPU 154
APIO_procNo = 154
APIO_procNo = 539
APIO_procNo = 923
APIO_procNo = 667
APIO_procNo = 283
APIO_procNo = 796
APIO_procNo = 1563
writeThread 1563 on CPU 155
APIO_procNo = 1051
APIO_procNo = 1692
APIO_procNo = 1180
APIO_procNo = 1947
writeThread 1947 on CPU 155
APIO_procNo = 1819
APIO_procNo = 1307
APIO_procNo = 412
APIO_procNo = 1435
writeThread 1435 on CPU 155
APIO_procNo = 155
APIO_procNo = 540
APIO_procNo = 924
writeThread 924 on CPU 156
APIO_procNo = 668
APIO_procNo = 284
APIO_procNo = 797
APIO_procNo = 1564
writeThread 1564 on CPU 156
APIO_procNo = 1052
APIO_procNo = 1693
APIO_procNo = 1181
APIO_procNo = 1948
APIO_procNo = 1820
APIO_procNo = 1308
APIO_procNo = 413
APIO_procNo = 1436
writeThread 1436 on CPU 156
APIO_procNo = 156
APIO_procNo = 541
APIO_procNo = 925
writeThread 925 on CPU 157
APIO_procNo = 669
APIO_procNo = 285
APIO_procNo = 798
APIO_procNo = 1565
writeThread 1565 on CPU 157
APIO_procNo = 1053
APIO_procNo = 1694
APIO_procNo = 1182
APIO_procNo = 1949
writeThread 1949 on CPU 157
APIO_procNo = 1821
APIO_procNo = 1309
APIO_procNo = 414
APIO_procNo = 1437
writeThread 1437 on CPU 157
APIO_procNo = 157
APIO_procNo = 542
APIO_procNo = 926
writeThread 926 on CPU 158
APIO_procNo = 670
APIO_procNo = 286
APIO_procNo = 799
APIO_procNo = 1566
writeThread 1566 on CPU 158
APIO_procNo = 1054
APIO_procNo = 1695
APIO_procNo = 1183
APIO_procNo = 1950
APIO_procNo = 1822
APIO_procNo = 1310
APIO_procNo = 415
writeThread 415 on CPU 159
APIO_procNo = 1438
APIO_procNo = 158
APIO_procNo = 543
APIO_procNo = 927
writeThread 927 on CPU 159
APIO_procNo = 671
APIO_procNo = 287
APIO_procNo = 800
APIO_procNo = 1567
writeThread 1567 on CPU 159
APIO_procNo = 1055
APIO_procNo = 1696
APIO_procNo = 1184
APIO_procNo = 1951
APIO_procNo = 1823
APIO_procNo = 1311
APIO_procNo = 416
writeThread 416 on CPU 160
APIO_procNo = 1439
writeThread 1439 on CPU 159
APIO_procNo = 159
APIO_procNo = 544
APIO_procNo = 928
APIO_procNo = 672
writeThread 672 on CPU 160
APIO_procNo = 288
APIO_procNo = 801
APIO_procNo = 1568
writeThread 1568 on CPU 160
APIO_procNo = 1056
APIO_procNo = 1697
APIO_procNo = 1185
writeThread 1185 on CPU 161
APIO_procNo = 1952
APIO_procNo = 1824
APIO_procNo = 1312
writeThread 1312 on CPU 160
APIO_procNo = 417
writeThread 417 on CPU 161
APIO_procNo = 1440
APIO_procNo = 160
APIO_procNo = 545
APIO_procNo = 929
APIO_procNo = 673
writeThread 673 on CPU 161
APIO_procNo = 289
APIO_procNo = 802
APIO_procNo = 1569
writeThread 1569 on CPU 161
APIO_procNo = 1057
APIO_procNo = 1698
APIO_procNo = 1186
writeThread 1186 on CPU 162
APIO_procNo = 1953
APIO_procNo = 1825
APIO_procNo = 1313
writeThread 1313 on CPU 161
APIO_procNo = 418
writeThread 418 on CPU 162
APIO_procNo = 1441
APIO_procNo = 161
APIO_procNo = 546
APIO_procNo = 930
APIO_procNo = 674
writeThread 674 on CPU 162
APIO_procNo = 290
APIO_procNo = 803
APIO_procNo = 1570
writeThread 1570 on CPU 162
APIO_procNo = 1058
APIO_procNo = 1699
APIO_procNo = 1187
writeThread 1187 on CPU 163
APIO_procNo = 1954
APIO_procNo = 1826
APIO_procNo = 1314
writeThread 1314 on CPU 162
APIO_procNo = 419
writeThread 419 on CPU 163
APIO_procNo = 1442
APIO_procNo = 162
APIO_procNo = 547
APIO_procNo = 931
APIO_procNo = 675
writeThread 675 on CPU 163
APIO_procNo = 291
APIO_procNo = 804
APIO_procNo = 1571
writeThread 1571 on CPU 163
APIO_procNo = 1059
APIO_procNo = 1700
APIO_procNo = 1188
writeThread 1188 on CPU 164
APIO_procNo = 1955
APIO_procNo = 1827
APIO_procNo = 1315
writeThread 1315 on CPU 163
APIO_procNo = 420
APIO_procNo = 1443
APIO_procNo = 163
APIO_procNo = 548
APIO_procNo = 932
APIO_procNo = 676
writeThread 676 on CPU 164
APIO_procNo = 292
APIO_procNo = 805
writeThread 805 on CPU 165
APIO_procNo = 1572
writeThread 1572 on CPU 164
APIO_procNo = 1060
APIO_procNo = 1701
APIO_procNo = 1189
writeThread 1189 on CPU 165
APIO_procNo = 1956
APIO_procNo = 1828
APIO_procNo = 1316
writeThread 1316 on CPU 164
APIO_procNo = 421
APIO_procNo = 1444
APIO_procNo = 164
APIO_procNo = 549
APIO_procNo = 933
APIO_procNo = 677
writeThread 677 on CPU 165
APIO_procNo = 293
APIO_procNo = 806
writeThread 806 on CPU 166
APIO_procNo = 1573
writeThread 1573 on CPU 165
APIO_procNo = 1061
APIO_procNo = 1702
APIO_procNo = 1190
writeThread 1190 on CPU 166
APIO_procNo = 1957
APIO_procNo = 1829
APIO_procNo = 1317
writeThread 1317 on CPU 165
APIO_procNo = 422
APIO_procNo = 1445
APIO_procNo = 165
APIO_procNo = 550
APIO_procNo = 934
APIO_procNo = 678
APIO_procNo = 294
APIO_procNo = 807
writeThread 807 on CPU 167
APIO_procNo = 1574
writeThread 1574 on CPU 166
APIO_procNo = 1062
APIO_procNo = 1703
APIO_procNo = 1191
writeThread 1191 on CPU 167
APIO_procNo = 1958
APIO_procNo = 1830
APIO_procNo = 1318
writeThread 1318 on CPU 166
APIO_procNo = 423
APIO_procNo = 1446
APIO_procNo = 166
APIO_procNo = 551
APIO_procNo = 935
APIO_procNo = 679
writeThread 679 on CPU 167
APIO_procNo = 295
APIO_procNo = 808
writeThread 808 on CPU 168
APIO_procNo = 1575
writeThread 1575 on CPU 167
APIO_procNo = 1063
APIO_procNo = 1704
APIO_procNo = 1192
writeThread 1192 on CPU 168
APIO_procNo = 1959
APIO_procNo = 1831
APIO_procNo = 1319
writeThread 1319 on CPU 167
APIO_procNo = 424
writeThread 424 on CPU 168
APIO_procNo = 1447
APIO_procNo = 167
APIO_procNo = 552
APIO_procNo = 936
APIO_procNo = 680
writeThread 680 on CPU 168
APIO_procNo = 296
APIO_procNo = 809
writeThread 809 on CPU 169
APIO_procNo = 1576
writeThread 1576 on CPU 168
APIO_procNo = 1064
APIO_procNo = 1705
APIO_procNo = 1193
writeThread 1193 on CPU 169
APIO_procNo = 1960
APIO_procNo = 1832
APIO_procNo = 1320
APIO_procNo = 425
writeThread 425 on CPU 169
APIO_procNo = 1448
APIO_procNo = 168
APIO_procNo = 553
APIO_procNo = 937
APIO_procNo = 681
writeThread 681 on CPU 169
APIO_procNo = 297
APIO_procNo = 810
writeThread 810 on CPU 170
APIO_procNo = 1577
writeThread 1577 on CPU 169
APIO_procNo = 1065
APIO_procNo = 1706
APIO_procNo = 1194
writeThread 1194 on CPU 170
APIO_procNo = 1961
APIO_procNo = 1833
APIO_procNo = 1321
APIO_procNo = 426
writeThread 426 on CPU 170
APIO_procNo = 1449
APIO_procNo = 169
APIO_procNo = 554
APIO_procNo = 938
APIO_procNo = 682
writeThread 682 on CPU 170
APIO_procNo = 298
APIO_procNo = 811
writeThread 811 on CPU 171
APIO_procNo = 1578
writeThread 1578 on CPU 170
APIO_procNo = 1066
APIO_procNo = 1707
APIO_procNo = 1195
writeThread 1195 on CPU 171
APIO_procNo = 1962
APIO_procNo = 1834
APIO_procNo = 1322
writeThread 1322 on CPU 170
APIO_procNo = 427
writeThread 427 on CPU 171
APIO_procNo = 1450
APIO_procNo = 170
APIO_procNo = 555
APIO_procNo = 939
APIO_procNo = 683
writeThread 683 on CPU 171
APIO_procNo = 299
APIO_procNo = 812
writeThread 812 on CPU 172
APIO_procNo = 1579
writeThread 1579 on CPU 171
APIO_procNo = 1067
APIO_procNo = 1708
APIO_procNo = 1196
writeThread 1196 on CPU 172
APIO_procNo = 1963
APIO_procNo = 1835
APIO_procNo = 1323
APIO_procNo = 428
APIO_procNo = 1451
APIO_procNo = 171
APIO_procNo = 556
APIO_procNo = 940
APIO_procNo = 684
writeThread 684 on CPU 172
APIO_procNo = 300
APIO_procNo = 813
writeThread 813 on CPU 173
APIO_procNo = 1580
writeThread 1580 on CPU 172
APIO_procNo = 1068
APIO_procNo = 1709
APIO_procNo = 1197
writeThread 1197 on CPU 173
APIO_procNo = 1964
APIO_procNo = 1836
APIO_procNo = 1324
writeThread 1324 on CPU 172
APIO_procNo = 429
APIO_procNo = 1452
APIO_procNo = 172

Starting time loop

APIO_procNo = 557
APIO_procNo = 941
APIO_procNo = 685
writeThread 685 on CPU 173
APIO_procNo = 301
APIO_procNo = 814
writeThread 814 on CPU 174
APIO_procNo = 1581
writeThread 1581 on CPU 173
APIO_procNo = 1069
writeThread 1069 on CPU 173
APIO_procNo = 1710
APIO_procNo = 1198
writeThread 1198 on CPU 174
APIO_procNo = 1965
APIO_procNo = 1837
APIO_procNo = 1325
writeThread 1325 on CPU 173
APIO_procNo = 430
APIO_procNo = 1453
APIO_procNo = 173
APIO_procNo = 558
APIO_procNo = 942
APIO_procNo = 686
writeThread 686 on CPU 174
APIO_procNo = 302
APIO_procNo = 815
writeThread 815 on CPU 175
APIO_procNo = 1582
writeThread 1582 on CPU 174
APIO_procNo = 1070
writeThread 1070 on CPU 174
APIO_procNo = 1711
APIO_procNo = 1199
writeThread 1199 on CPU 175
APIO_procNo = 1966
APIO_procNo = 1838
writeThread 1838 on CPU 174
APIO_procNo = 1326
writeThread 1326 on CPU 174
APIO_procNo = 431
APIO_procNo = 1454
APIO_procNo = 174
APIO_procNo = 559
APIO_procNo = 943
APIO_procNo = 687
writeThread 687 on CPU 175
APIO_procNo = 303
APIO_procNo = 816
writeThread 816 on CPU 176
APIO_procNo = 1583
writeThread 1583 on CPU 175
APIO_procNo = 1071
writeThread 1071 on CPU 175
APIO_procNo = 1712
writeThread 1712 on CPU 176
APIO_procNo = 1200
writeThread 1200 on CPU 176
APIO_procNo = 1967
APIO_procNo = 1839
writeThread 1839 on CPU 175
APIO_procNo = 1327
writeThread 1327 on CPU 175
APIO_procNo = 432
writeThread 432 on CPU 176
APIO_procNo = 1455
APIO_procNo = 175
APIO_procNo = 560
writeThread 560 on CPU 176
APIO_procNo = 944
writeThread 944 on CPU 176
APIO_procNo = 688
writeThread 688 on CPU 176
APIO_procNo = 304
APIO_procNo = 817
writeThread 817 on CPU 177
APIO_procNo = 1584
writeThread 1584 on CPU 176
APIO_procNo = 1072
writeThread 1072 on CPU 176
APIO_procNo = 1713
writeThread 1713 on CPU 177
APIO_procNo = 1201
writeThread 1201 on CPU 177
APIO_procNo = 1968
APIO_procNo = 1840
writeThread 1840 on CPU 176
APIO_procNo = 1328
APIO_procNo = 433
writeThread 433 on CPU 177
APIO_procNo = 1456
APIO_procNo = 176
APIO_procNo = 561
writeThread 561 on CPU 177
APIO_procNo = 945
writeThread 945 on CPU 177
APIO_procNo = 689
writeThread 689 on CPU 177
APIO_procNo = 305
APIO_procNo = 818
writeThread 818 on CPU 178
APIO_procNo = 1585
writeThread 1585 on CPU 177
APIO_procNo = 1073
writeThread 1073 on CPU 177
APIO_procNo = 1714
writeThread 1714 on CPU 178
APIO_procNo = 1202
writeThread 1202 on CPU 178
APIO_procNo = 1969
APIO_procNo = 1841
writeThread 1841 on CPU 177
APIO_procNo = 1329
APIO_procNo = 434
writeThread 434 on CPU 178
APIO_procNo = 1457
APIO_procNo = 177
APIO_procNo = 562
writeThread 562 on CPU 178
APIO_procNo = 946
writeThread 946 on CPU 178
APIO_procNo = 690
writeThread 690 on CPU 178
APIO_procNo = 306
APIO_procNo = 819
writeThread 819 on CPU 179
APIO_procNo = 1586
writeThread 1586 on CPU 178
APIO_procNo = 1074
writeThread 1074 on CPU 178
APIO_procNo = 1715
writeThread 1715 on CPU 179
APIO_procNo = 1203
writeThread 1203 on CPU 179
APIO_procNo = 1970
APIO_procNo = 1842
writeThread 1842 on CPU 178
APIO_procNo = 1330
APIO_procNo = 435
writeThread 435 on CPU 179
APIO_procNo = 1458
APIO_procNo = 178
APIO_procNo = 563
writeThread 563 on CPU 179
APIO_procNo = 947
writeThread 947 on CPU 179
APIO_procNo = 691
writeThread 691 on CPU 179
APIO_procNo = 307
APIO_procNo = 820
writeThread 820 on CPU 180
APIO_procNo = 1587
writeThread 1587 on CPU 179
APIO_procNo = 1075
writeThread 1075 on CPU 179
APIO_procNo = 1716
writeThread 1716 on CPU 180
APIO_procNo = 1204
writeThread 1204 on CPU 180
APIO_procNo = 1971
APIO_procNo = 1843
writeThread 1843 on CPU 179
APIO_procNo = 1331
APIO_procNo = 436
writeThread 436 on CPU 180
APIO_procNo = 1459
APIO_procNo = 179
APIO_procNo = 564
writeThread 564 on CPU 180
APIO_procNo = 948
APIO_procNo = 692
APIO_procNo = 308
APIO_procNo = 821
writeThread 821 on CPU 181
APIO_procNo = 1588
writeThread 1588 on CPU 180
APIO_procNo = 1076
writeThread 1076 on CPU 180
APIO_procNo = 1717
writeThread 1717 on CPU 181
APIO_procNo = 1205
writeThread 1205 on CPU 181
APIO_procNo = 1972
APIO_procNo = 1844
writeThread 1844 on CPU 180
APIO_procNo = 1332
APIO_procNo = 437
writeThread 437 on CPU 181
APIO_procNo = 1460
APIO_procNo = 180
APIO_procNo = 565
writeThread 565 on CPU 181
APIO_procNo = 949
APIO_procNo = 693
writeThread 693 on CPU 181
APIO_procNo = 309
APIO_procNo = 822
writeThread 822 on CPU 182
APIO_procNo = 1589
writeThread 1589 on CPU 181
APIO_procNo = 1077
writeThread 1077 on CPU 181
APIO_procNo = 1718
writeThread 1718 on CPU 182
APIO_procNo = 1206
writeThread 1206 on CPU 182
APIO_procNo = 1973
APIO_procNo = 1845
writeThread 1845 on CPU 181
APIO_procNo = 1333
APIO_procNo = 438
writeThread 438 on CPU 182
APIO_procNo = 1461
APIO_procNo = 181
APIO_procNo = 566
writeThread 566 on CPU 182
APIO_procNo = 950
APIO_procNo = 694
writeThread 694 on CPU 182
APIO_procNo = 310
APIO_procNo = 823
writeThread 823 on CPU 183
APIO_procNo = 1590
writeThread 1590 on CPU 182
APIO_procNo = 1078
writeThread 1078 on CPU 182
APIO_procNo = 1719
writeThread 1719 on CPU 183
APIO_procNo = 1207
writeThread 1207 on CPU 183
APIO_procNo = 1974
APIO_procNo = 1846
writeThread 1846 on CPU 182
APIO_procNo = 1334
APIO_procNo = 439
writeThread 439 on CPU 183
APIO_procNo = 1462
APIO_procNo = 182
Courant Number mean: 2.06605644347511e-11 max: 2.085039370078742e-05
deltaT = 1.2e-09
Time = 1.2e-09

APIO_procNo = 567
writeThread 567 on CPU 183
APIO_procNo = 951
APIO_procNo = 695
writeThread 695 on CPU 183
APIO_procNo = 311
APIO_procNo = 824
writeThread 824 on CPU 184
APIO_procNo = 1591
writeThread 1591 on CPU 183
APIO_procNo = 1079
writeThread 1079 on CPU 183
APIO_procNo = 1720
writeThread 1720 on CPU 184
APIO_procNo = 1208
writeThread 1208 on CPU 184
APIO_procNo = 1975
APIO_procNo = 1847
writeThread 1847 on CPU 183
APIO_procNo = 1335
APIO_procNo = 440
writeThread 440 on CPU 184
APIO_procNo = 1463
APIO_procNo = 183
PIMPLE: iteration 1
APIO_procNo = 568
APIO_procNo = 952
APIO_procNo = 696
writeThread 696 on CPU 184
APIO_procNo = 312
APIO_procNo = 825
writeThread 825 on CPU 185
APIO_procNo = 1592
writeThread 1592 on CPU 184
APIO_procNo = 1080
writeThread 1080 on CPU 184
APIO_procNo = 1721
writeThread 1721 on CPU 185
APIO_procNo = 1209
writeThread 1209 on CPU 185
APIO_procNo = 1976
APIO_procNo = 1848
writeThread 1848 on CPU 184
APIO_procNo = 1336
APIO_procNo = 441
writeThread 441 on CPU 185
APIO_procNo = 1464
APIO_procNo = 184
APIO_procNo = 569
APIO_procNo = 953
APIO_procNo = 697
writeThread 697 on CPU 185
APIO_procNo = 313
APIO_procNo = 826
writeThread 826 on CPU 186
APIO_procNo = 1593
writeThread 1593 on CPU 185
APIO_procNo = 1081
writeThread 1081 on CPU 185
APIO_procNo = 1722
writeThread 1722 on CPU 186
APIO_procNo = 1210
writeThread 1210 on CPU 186
APIO_procNo = 1977
APIO_procNo = 1849
writeThread 1849 on CPU 185
APIO_procNo = 1337
APIO_procNo = 442
writeThread 442 on CPU 186
APIO_procNo = 1465
APIO_procNo = 185
APIO_procNo = 570
APIO_procNo = 954
APIO_procNo = 698
writeThread 698 on CPU 186
APIO_procNo = 314
APIO_procNo = 827
writeThread 827 on CPU 187
APIO_procNo = 1594
writeThread 1594 on CPU 186
APIO_procNo = 1082
writeThread 1082 on CPU 186
APIO_procNo = 1723
APIO_procNo = 1211
writeThread 1211 on CPU 187
APIO_procNo = 1978
APIO_procNo = 1850
writeThread 1850 on CPU 186
APIO_procNo = 1338
APIO_procNo = 443
writeThread 443 on CPU 187
APIO_procNo = 1466
writeThread 1466 on CPU 186
APIO_procNo = 186
APIO_procNo = 571
writeThread 571 on CPU 187
APIO_procNo = 955
APIO_procNo = 699
writeThread 699 on CPU 187
APIO_procNo = 315
APIO_procNo = 828
writeThread 828 on CPU 188
APIO_procNo = 1595
writeThread 1595 on CPU 187
APIO_procNo = 1083
writeThread 1083 on CPU 187
APIO_procNo = 1724
writeThread 1724 on CPU 188
APIO_procNo = 1212
writeThread 1212 on CPU 188
APIO_procNo = 1979
APIO_procNo = 1851
writeThread 1851 on CPU 187
APIO_procNo = 1339
APIO_procNo = 444
writeThread 444 on CPU 188
APIO_procNo = 1467
writeThread 1467 on CPU 187
APIO_procNo = 187
APIO_procNo = 572
writeThread 572 on CPU 188
APIO_procNo = 956
APIO_procNo = 700
writeThread 700 on CPU 188
APIO_procNo = 316
APIO_procNo = 829
writeThread 829 on CPU 189
APIO_procNo = 1596
writeThread 1596 on CPU 188
APIO_procNo = 1084
writeThread 1084 on CPU 188
APIO_procNo = 1725
writeThread 1725 on CPU 189
APIO_procNo = 1213
writeThread 1213 on CPU 189
APIO_procNo = 1980
APIO_procNo = 1852
writeThread 1852 on CPU 188
APIO_procNo = 1340
APIO_procNo = 445
writeThread 445 on CPU 189
APIO_procNo = 1468
writeThread 1468 on CPU 188
APIO_procNo = 188
diagonal:  Solving for rho, Initial residual = 0, Final residual = 0, No Iterations 0
APIO_procNo = 573
writeThread 573 on CPU 189
APIO_procNo = 957
APIO_procNo = 701
writeThread 701 on CPU 189
APIO_procNo = 317
APIO_procNo = 830
writeThread 830 on CPU 190
APIO_procNo = 1597
writeThread 1597 on CPU 189
APIO_procNo = 1085
writeThread 1085 on CPU 189
APIO_procNo = 1726
writeThread 1726 on CPU 190
APIO_procNo = 1214
writeThread 1214 on CPU 190
APIO_procNo = 1981
APIO_procNo = 1853
writeThread 1853 on CPU 189
APIO_procNo = 1341
APIO_procNo = 446
writeThread 446 on CPU 190
APIO_procNo = 1469
writeThread 1469 on CPU 189
APIO_procNo = 189
APIO_procNo = 574
writeThread 574 on CPU 190
APIO_procNo = 958
APIO_procNo = 702
writeThread 702 on CPU 190
APIO_procNo = 318
APIO_procNo = 831
writeThread 831 on CPU 191
APIO_procNo = 1598
writeThread 1598 on CPU 190
APIO_procNo = 1086
writeThread 1086 on CPU 190
APIO_procNo = 1727
writeThread 1727 on CPU 191
APIO_procNo = 1215
writeThread 1215 on CPU 191
APIO_procNo = 1982
APIO_procNo = 1854
writeThread 1854 on CPU 190
APIO_procNo = 1342
APIO_procNo = 447
writeThread 447 on CPU 191
APIO_procNo = 1470
writeThread 1470 on CPU 190
APIO_procNo = 190
APIO_procNo = 575
writeThread 575 on CPU 191
APIO_procNo = 959
APIO_procNo = 703
writeThread 703 on CPU 191
APIO_procNo = 319
APIO_procNo = 832
writeThread 832 on CPU 192
APIO_procNo = 1599
writeThread 1599 on CPU 191
APIO_procNo = 1087
writeThread 1087 on CPU 191
APIO_procNo = 1728
writeThread 1728 on CPU 192
APIO_procNo = 1216
writeThread 1216 on CPU 192
APIO_procNo = 1983
APIO_procNo = 1855
writeThread 1855 on CPU 191
APIO_procNo = 1343
APIO_procNo = 448
writeThread 448 on CPU 192
APIO_procNo = 1471
writeThread 1471 on CPU 191
APIO_procNo = 191
APIO_procNo = 576
writeThread 576 on CPU 192
APIO_procNo = 960
writeThread 960 on CPU 192
APIO_procNo = 704
writeThread 704 on CPU 192
APIO_procNo = 320
APIO_procNo = 833
writeThread 833 on CPU 193
APIO_procNo = 1600
writeThread 1600 on CPU 192
APIO_procNo = 1088
writeThread 1088 on CPU 192
APIO_procNo = 1729
writeThread 1729 on CPU 193
APIO_procNo = 1217
writeThread 1217 on CPU 193
APIO_procNo = 1984
writeThread 1984 on CPU 192
APIO_procNo = 1856
writeThread 1856 on CPU 192
APIO_procNo = 1344
writeThread 1344 on CPU 192
APIO_procNo = 449
writeThread 449 on CPU 193
APIO_procNo = 1472
APIO_procNo = 192
APIO_procNo = 577
writeThread 577 on CPU 193
APIO_procNo = 961
writeThread 961 on CPU 193
APIO_procNo = 705
writeThread 705 on CPU 193
APIO_procNo = 321
APIO_procNo = 834
writeThread 834 on CPU 194
APIO_procNo = 1601
writeThread 1601 on CPU 193
APIO_procNo = 1089
writeThread 1089 on CPU 193
APIO_procNo = 1730
writeThread 1730 on CPU 194
APIO_procNo = 1218
writeThread 1218 on CPU 194
APIO_procNo = 1985
writeThread 1985 on CPU 193
APIO_procNo = 1857
writeThread 1857 on CPU 193
APIO_procNo = 1345
writeThread 1345 on CPU 193
APIO_procNo = 450
writeThread 450 on CPU 194
APIO_procNo = 1473
APIO_procNo = 193
APIO_procNo = 578
writeThread 578 on CPU 194
APIO_procNo = 962
writeThread 962 on CPU 194
APIO_procNo = 706
writeThread 706 on CPU 194
APIO_procNo = 322
APIO_procNo = 835
writeThread 835 on CPU 195
APIO_procNo = 1602
writeThread 1602 on CPU 194
APIO_procNo = 1090
writeThread 1090 on CPU 194
APIO_procNo = 1731
writeThread 1731 on CPU 195
APIO_procNo = 1219
writeThread 1219 on CPU 195
APIO_procNo = 1986
writeThread 1986 on CPU 194
APIO_procNo = 1858
writeThread 1858 on CPU 194
APIO_procNo = 1346
writeThread 1346 on CPU 194
APIO_procNo = 451
writeThread 451 on CPU 195
APIO_procNo = 1474
APIO_procNo = 194
APIO_procNo = 579
APIO_procNo = 963
writeThread 963 on CPU 195
APIO_procNo = 707
writeThread 707 on CPU 195
APIO_procNo = 323
APIO_procNo = 836
writeThread 836 on CPU 196
APIO_procNo = 1603
writeThread 1603 on CPU 195
APIO_procNo = 1091
writeThread 1091 on CPU 195
APIO_procNo = 1732
APIO_procNo = 1220
writeThread 1220 on CPU 196
APIO_procNo = 1987
writeThread 1987 on CPU 195
APIO_procNo = 1859
writeThread 1859 on CPU 195
APIO_procNo = 1347
writeThread 1347 on CPU 195
APIO_procNo = 452
writeThread 452 on CPU 196
APIO_procNo = 1475
APIO_procNo = 195
APIO_procNo = 580
writeThread 580 on CPU 196
APIO_procNo = 964
APIO_procNo = 708
writeThread 708 on CPU 196
APIO_procNo = 324
APIO_procNo = 837
writeThread 837 on CPU 197
APIO_procNo = 1604
writeThread 1604 on CPU 196
APIO_procNo = 1092
writeThread 1092 on CPU 196
APIO_procNo = 1733
writeThread 1733 on CPU 197
APIO_procNo = 1221
writeThread 1221 on CPU 197
APIO_procNo = 1988
writeThread 1988 on CPU 196
APIO_procNo = 1860
writeThread 1860 on CPU 196
APIO_procNo = 1348
writeThread 1348 on CPU 196
APIO_procNo = 453
writeThread 453 on CPU 197
APIO_procNo = 1476
APIO_procNo = 196
APIO_procNo = 581
writeThread 581 on CPU 197
APIO_procNo = 965
APIO_procNo = 709
writeThread 709 on CPU 197
APIO_procNo = 325
APIO_procNo = 838
writeThread 838 on CPU 198
APIO_procNo = 1605
writeThread 1605 on CPU 197
APIO_procNo = 1093
writeThread 1093 on CPU 197
APIO_procNo = 1734
writeThread 1734 on CPU 198
APIO_procNo = 1222
writeThread 1222 on CPU 198
APIO_procNo = 1989
writeThread 1989 on CPU 197
APIO_procNo = 1861
writeThread 1861 on CPU 197
APIO_procNo = 1349
writeThread 1349 on CPU 197
APIO_procNo = 454
writeThread 454 on CPU 198
APIO_procNo = 1477
APIO_procNo = 197
APIO_procNo = 582
writeThread 582 on CPU 198
APIO_procNo = 966
APIO_procNo = 710
writeThread 710 on CPU 198
APIO_procNo = 326
APIO_procNo = 839
writeThread 839 on CPU 199
APIO_procNo = 1606
writeThread 1606 on CPU 198
APIO_procNo = 1094
writeThread 1094 on CPU 198
APIO_procNo = 1735
writeThread 1735 on CPU 199
APIO_procNo = 1223
writeThread 1223 on CPU 199
APIO_procNo = 1990
writeThread 1990 on CPU 198
APIO_procNo = 1862
writeThread 1862 on CPU 198
APIO_procNo = 1350
writeThread 1350 on CPU 198
APIO_procNo = 455
writeThread 455 on CPU 199
APIO_procNo = 1478
APIO_procNo = 198
APIO_procNo = 583
writeThread 583 on CPU 199
APIO_procNo = 967
APIO_procNo = 711
writeThread 711 on CPU 199
APIO_procNo = 327
APIO_procNo = 840
writeThread 840 on CPU 200
APIO_procNo = 1607
writeThread 1607 on CPU 199
APIO_procNo = 1095
writeThread 1095 on CPU 199
APIO_procNo = 1736
writeThread 1736 on CPU 200
APIO_procNo = 1224
writeThread 1224 on CPU 200
APIO_procNo = 1991
writeThread 1991 on CPU 199
APIO_procNo = 1863
writeThread 1863 on CPU 199
APIO_procNo = 1351
APIO_procNo = 456
writeThread 456 on CPU 200
APIO_procNo = 1479
APIO_procNo = 199
APIO_procNo = 584
writeThread 584 on CPU 200
APIO_procNo = 968
APIO_procNo = 712
writeThread 712 on CPU 200
APIO_procNo = 328
APIO_procNo = 841
writeThread 841 on CPU 201
APIO_procNo = 1608
writeThread 1608 on CPU 200
APIO_procNo = 1096
writeThread 1096 on CPU 200
APIO_procNo = 1737
writeThread 1737 on CPU 201
APIO_procNo = 1225
writeThread 1225 on CPU 201
APIO_procNo = 1992
writeThread 1992 on CPU 200
APIO_procNo = 1864
writeThread 1864 on CPU 200
APIO_procNo = 1352
APIO_procNo = 457
writeThread 457 on CPU 201
APIO_procNo = 1480
APIO_procNo = 200
APIO_procNo = 585
writeThread 585 on CPU 201
APIO_procNo = 969
APIO_procNo = 713
writeThread 713 on CPU 201
APIO_procNo = 329
APIO_procNo = 842
writeThread 842 on CPU 202
APIO_procNo = 1609
writeThread 1609 on CPU 201
APIO_procNo = 1097
writeThread 1097 on CPU 201
APIO_procNo = 1738
writeThread 1738 on CPU 202
APIO_procNo = 1226
writeThread 1226 on CPU 202
APIO_procNo = 1993
writeThread 1993 on CPU 201
APIO_procNo = 1865
writeThread 1865 on CPU 201
APIO_procNo = 1353
writeThread 1353 on CPU 201
APIO_procNo = 458
writeThread 458 on CPU 202
APIO_procNo = 1481
APIO_procNo = 201
APIO_procNo = 586
writeThread 586 on CPU 202
APIO_procNo = 970
APIO_procNo = 714
writeThread 714 on CPU 202
APIO_procNo = 330
APIO_procNo = 843
writeThread 843 on CPU 203
APIO_procNo = 1610
writeThread 1610 on CPU 202
APIO_procNo = 1098
writeThread 1098 on CPU 202
APIO_procNo = 1739
writeThread 1739 on CPU 203
APIO_procNo = 1227
writeThread 1227 on CPU 203
APIO_procNo = 1994
writeThread 1994 on CPU 202
APIO_procNo = 1866
writeThread 1866 on CPU 202
APIO_procNo = 1354
writeThread 1354 on CPU 202
APIO_procNo = 459
writeThread 459 on CPU 203
APIO_procNo = 1482
APIO_procNo = 202
APIO_procNo = 587
writeThread 587 on CPU 203
APIO_procNo = 971
APIO_procNo = 715
writeThread 715 on CPU 203
APIO_procNo = 331
APIO_procNo = 844
writeThread 844 on CPU 204
APIO_procNo = 1611
writeThread 1611 on CPU 203
APIO_procNo = 1099
writeThread 1099 on CPU 203
APIO_procNo = 1740
writeThread 1740 on CPU 204
APIO_procNo = 1228
writeThread 1228 on CPU 204
APIO_procNo = 1995
writeThread 1995 on CPU 203
APIO_procNo = 1867
writeThread 1867 on CPU 203
APIO_procNo = 1355
writeThread 1355 on CPU 203
APIO_procNo = 460
writeThread 460 on CPU 204
APIO_procNo = 1483
APIO_procNo = 203
APIO_procNo = 588
APIO_procNo = 972
APIO_procNo = 716
writeThread 716 on CPU 204
APIO_procNo = 332
APIO_procNo = 845
writeThread 845 on CPU 205
APIO_procNo = 1612
writeThread 1612 on CPU 204
APIO_procNo = 1100
writeThread 1100 on CPU 204
APIO_procNo = 1741
writeThread 1741 on CPU 205
APIO_procNo = 1229
writeThread 1229 on CPU 205
APIO_procNo = 1996
APIO_procNo = 1868
writeThread 1868 on CPU 204
APIO_procNo = 1356
APIO_procNo = 461
writeThread 461 on CPU 205
APIO_procNo = 1484
APIO_procNo = 204
APIO_procNo = 589
APIO_procNo = 973
writeThread 973 on CPU 205
APIO_procNo = 717
writeThread 717 on CPU 205
APIO_procNo = 333
APIO_procNo = 846
writeThread 846 on CPU 206
APIO_procNo = 1613
writeThread 1613 on CPU 205
APIO_procNo = 1101
writeThread 1101 on CPU 205
APIO_procNo = 1742
writeThread 1742 on CPU 206
APIO_procNo = 1230
writeThread 1230 on CPU 206
APIO_procNo = 1997
APIO_procNo = 1869
writeThread 1869 on CPU 205
APIO_procNo = 1357
APIO_procNo = 462
writeThread 462 on CPU 206
APIO_procNo = 1485
APIO_procNo = 205
APIO_procNo = 590
APIO_procNo = 974
writeThread 974 on CPU 206
APIO_procNo = 718
writeThread 718 on CPU 206
APIO_procNo = 334
APIO_procNo = 847
writeThread 847 on CPU 207
APIO_procNo = 1614
writeThread 1614 on CPU 206
APIO_procNo = 1102
writeThread 1102 on CPU 206
APIO_procNo = 1743
writeThread 1743 on CPU 207
APIO_procNo = 1231
writeThread 1231 on CPU 207
APIO_procNo = 1998
APIO_procNo = 1870
writeThread 1870 on CPU 206
APIO_procNo = 1358
APIO_procNo = 463
writeThread 463 on CPU 207
APIO_procNo = 1486
APIO_procNo = 206
APIO_procNo = 591
APIO_procNo = 975
writeThread 975 on CPU 207
APIO_procNo = 719
writeThread 719 on CPU 207
APIO_procNo = 335
APIO_procNo = 848
writeThread 848 on CPU 208
APIO_procNo = 1615
writeThread 1615 on CPU 207
APIO_procNo = 1103
writeThread 1103 on CPU 207
APIO_procNo = 1744
writeThread 1744 on CPU 208
APIO_procNo = 1232
writeThread 1232 on CPU 208
APIO_procNo = 1999
APIO_procNo = 1871
writeThread 1871 on CPU 207
APIO_procNo = 1359
APIO_procNo = 464
writeThread 464 on CPU 208
APIO_procNo = 1487
APIO_procNo = 207
APIO_procNo = 592
writeThread 592 on CPU 208
APIO_procNo = 976
writeThread 976 on CPU 208
APIO_procNo = 720
writeThread 720 on CPU 208
APIO_procNo = 336
APIO_procNo = 849
writeThread 849 on CPU 209
APIO_procNo = 1616
writeThread 1616 on CPU 208
APIO_procNo = 1104
writeThread 1104 on CPU 208
APIO_procNo = 1745
writeThread 1745 on CPU 209
APIO_procNo = 1233
writeThread 1233 on CPU 209
APIO_procNo = 2000
writeThread 2000 on CPU 208
APIO_procNo = 1872
writeThread 1872 on CPU 208
APIO_procNo = 1360
writeThread 1360 on CPU 208
APIO_procNo = 465
writeThread 465 on CPU 209
APIO_procNo = 1488
writeThread 1488 on CPU 208
APIO_procNo = 208
APIO_procNo = 593
writeThread 593 on CPU 209
APIO_procNo = 977
writeThread 977 on CPU 209
APIO_procNo = 721
writeThread 721 on CPU 209
APIO_procNo = 337
writeThread 337 on CPU 209
APIO_procNo = 850
writeThread 850 on CPU 210
APIO_procNo = 1617
writeThread 1617 on CPU 209
APIO_procNo = 1105
writeThread 1105 on CPU 209
APIO_procNo = 1746
writeThread 1746 on CPU 210
APIO_procNo = 1234
writeThread 1234 on CPU 210
APIO_procNo = 2001
writeThread 2001 on CPU 209
APIO_procNo = 1873
writeThread 1873 on CPU 209
APIO_procNo = 1361
writeThread 1361 on CPU 209
APIO_procNo = 466
writeThread 466 on CPU 210
APIO_procNo = 1489
writeThread 1489 on CPU 209
APIO_procNo = 209
APIO_procNo = 594
writeThread 594 on CPU 210
APIO_procNo = 978
writeThread 978 on CPU 210
APIO_procNo = 722
writeThread 722 on CPU 210
APIO_procNo = 338
writeThread 338 on CPU 210
APIO_procNo = 851
writeThread 851 on CPU 211
APIO_procNo = 1618
writeThread 1618 on CPU 210
APIO_procNo = 1106
writeThread 1106 on CPU 210
APIO_procNo = 1747
writeThread 1747 on CPU 211
APIO_procNo = 1235
writeThread 1235 on CPU 211
APIO_procNo = 2002
writeThread 2002 on CPU 210
APIO_procNo = 1874
writeThread 1874 on CPU 210
APIO_procNo = 1362
writeThread 1362 on CPU 210
APIO_procNo = 467
writeThread 467 on CPU 211
APIO_procNo = 1490
writeThread 1490 on CPU 210
APIO_procNo = 210
APIO_procNo = 595
writeThread 595 on CPU 211
APIO_procNo = 979
writeThread 979 on CPU 211
APIO_procNo = 723
writeThread 723 on CPU 211
APIO_procNo = 339
APIO_procNo = 852
writeThread 852 on CPU 212
APIO_procNo = 1619
writeThread 1619 on CPU 211
APIO_procNo = 1107
writeThread 1107 on CPU 211
APIO_procNo = 1748
writeThread 1748 on CPU 212
APIO_procNo = 1236
writeThread 1236 on CPU 212
APIO_procNo = 2003
writeThread 2003 on CPU 211
APIO_procNo = 1875
writeThread 1875 on CPU 211
APIO_procNo = 1363
writeThread 1363 on CPU 211
APIO_procNo = 468
writeThread 468 on CPU 212
APIO_procNo = 1491
writeThread 1491 on CPU 211
APIO_procNo = 211
APIO_procNo = 596
APIO_procNo = 980
writeThread 980 on CPU 212
APIO_procNo = 724
writeThread 724 on CPU 212
APIO_procNo = 340
writeThread 340 on CPU 212
APIO_procNo = 853
writeThread 853 on CPU 213
APIO_procNo = 1620
writeThread 1620 on CPU 212
APIO_procNo = 1108
writeThread 1108 on CPU 212
APIO_procNo = 1749
writeThread 1749 on CPU 213
APIO_procNo = 1237
writeThread 1237 on CPU 213
APIO_procNo = 2004
writeThread 2004 on CPU 212
APIO_procNo = 1876
writeThread 1876 on CPU 212
APIO_procNo = 1364
writeThread 1364 on CPU 212
APIO_procNo = 469
writeThread 469 on CPU 213
APIO_procNo = 1492
writeThread 1492 on CPU 212
APIO_procNo = 212
APIO_procNo = 597
writeThread 597 on CPU 213
APIO_procNo = 981
writeThread 981 on CPU 213
APIO_procNo = 725
writeThread 725 on CPU 213
APIO_procNo = 341
writeThread 341 on CPU 213
APIO_procNo = 854
writeThread 854 on CPU 214
APIO_procNo = 1621
writeThread 1621 on CPU 213
APIO_procNo = 1109
writeThread 1109 on CPU 213
APIO_procNo = 1750
writeThread 1750 on CPU 214
APIO_procNo = 1238
writeThread 1238 on CPU 214
APIO_procNo = 2005
writeThread 2005 on CPU 213
APIO_procNo = 1877
writeThread 1877 on CPU 213
APIO_procNo = 1365
APIO_procNo = 470
writeThread 470 on CPU 214
APIO_procNo = 1493
writeThread 1493 on CPU 213
APIO_procNo = 213
APIO_procNo = 598
writeThread 598 on CPU 214
APIO_procNo = 982
writeThread 982 on CPU 214
APIO_procNo = 726
writeThread 726 on CPU 214
APIO_procNo = 342
writeThread 342 on CPU 214
APIO_procNo = 855
writeThread 855 on CPU 215
APIO_procNo = 1622
writeThread 1622 on CPU 214
APIO_procNo = 1110
writeThread 1110 on CPU 214
APIO_procNo = 1751
writeThread 1751 on CPU 215
APIO_procNo = 1239
writeThread 1239 on CPU 215
APIO_procNo = 2006
writeThread 2006 on CPU 214
APIO_procNo = 1878
writeThread 1878 on CPU 214
APIO_procNo = 1366
writeThread 1366 on CPU 214
APIO_procNo = 471
writeThread 471 on CPU 215
APIO_procNo = 1494
writeThread 1494 on CPU 214
APIO_procNo = 214
APIO_procNo = 599
writeThread 599 on CPU 215
APIO_procNo = 983
writeThread 983 on CPU 215
APIO_procNo = 727
writeThread 727 on CPU 215
APIO_procNo = 343
writeThread 343 on CPU 215
APIO_procNo = 856
writeThread 856 on CPU 216
APIO_procNo = 1623
writeThread 1623 on CPU 215
APIO_procNo = 1111
writeThread 1111 on CPU 215
APIO_procNo = 1752
writeThread 1752 on CPU 216
APIO_procNo = 1240
writeThread 1240 on CPU 216
APIO_procNo = 2007
writeThread 2007 on CPU 215
APIO_procNo = 1879
writeThread 1879 on CPU 215
APIO_procNo = 1367
writeThread 1367 on CPU 215
APIO_procNo = 472
writeThread 472 on CPU 216
APIO_procNo = 1495
writeThread 1495 on CPU 215
APIO_procNo = 215
APIO_procNo = 600
writeThread 600 on CPU 216
APIO_procNo = 984
writeThread 984 on CPU 216
APIO_procNo = 728
writeThread 728 on CPU 216
APIO_procNo = 344
writeThread 344 on CPU 216
APIO_procNo = 857
writeThread 857 on CPU 217
APIO_procNo = 1624
writeThread 1624 on CPU 216
APIO_procNo = 1112
writeThread 1112 on CPU 216
APIO_procNo = 1753
writeThread 1753 on CPU 217
APIO_procNo = 1241
writeThread 1241 on CPU 217
APIO_procNo = 2008
writeThread 2008 on CPU 216
APIO_procNo = 1880
writeThread 1880 on CPU 216
APIO_procNo = 1368
writeThread 1368 on CPU 216
APIO_procNo = 473
writeThread 473 on CPU 217
APIO_procNo = 1496
APIO_procNo = 216
APIO_procNo = 601
writeThread 601 on CPU 217
APIO_procNo = 985
writeThread 985 on CPU 217
APIO_procNo = 729
writeThread 729 on CPU 217
APIO_procNo = 345
writeThread 345 on CPU 217
APIO_procNo = 858
writeThread 858 on CPU 218
APIO_procNo = 1625
writeThread 1625 on CPU 217
APIO_procNo = 1113
writeThread 1113 on CPU 217
APIO_procNo = 1754
writeThread 1754 on CPU 218
APIO_procNo = 1242
writeThread 1242 on CPU 218
APIO_procNo = 2009
writeThread 2009 on CPU 217
APIO_procNo = 1881
writeThread 1881 on CPU 217
APIO_procNo = 1369
writeThread 1369 on CPU 217
APIO_procNo = 474
writeThread 474 on CPU 218
APIO_procNo = 1497
APIO_procNo = 217
APIO_procNo = 602
writeThread 602 on CPU 218
APIO_procNo = 986
writeThread 986 on CPU 218
APIO_procNo = 730
writeThread 730 on CPU 218
APIO_procNo = 346
writeThread 346 on CPU 218
APIO_procNo = 859
writeThread 859 on CPU 219
APIO_procNo = 1626
writeThread 1626 on CPU 218
APIO_procNo = 1114
writeThread 1114 on CPU 218
APIO_procNo = 1755
writeThread 1755 on CPU 219
APIO_procNo = 1243
writeThread 1243 on CPU 219
APIO_procNo = 2010
writeThread 2010 on CPU 218
APIO_procNo = 1882
writeThread 1882 on CPU 218
APIO_procNo = 1370
writeThread 1370 on CPU 218
APIO_procNo = 475
writeThread 475 on CPU 219
APIO_procNo = 1498
APIO_procNo = 218
APIO_procNo = 603
writeThread 603 on CPU 219
APIO_procNo = 987
writeThread 987 on CPU 219
APIO_procNo = 731
writeThread 731 on CPU 219
APIO_procNo = 347
writeThread 347 on CPU 219
APIO_procNo = 860
writeThread 860 on CPU 220
APIO_procNo = 1627
writeThread 1627 on CPU 219
APIO_procNo = 1115
writeThread 1115 on CPU 219
APIO_procNo = 1756
writeThread 1756 on CPU 220
APIO_procNo = 1244
writeThread 1244 on CPU 220
APIO_procNo = 2011
writeThread 2011 on CPU 219
APIO_procNo = 1883
writeThread 1883 on CPU 219
APIO_procNo = 1371
writeThread 1371 on CPU 219
APIO_procNo = 476
writeThread 476 on CPU 220
APIO_procNo = 1499
APIO_procNo = 219
APIO_procNo = 604
writeThread 604 on CPU 220
APIO_procNo = 988
writeThread 988 on CPU 220
APIO_procNo = 732
writeThread 732 on CPU 220
APIO_procNo = 348
writeThread 348 on CPU 220
APIO_procNo = 861
writeThread 861 on CPU 221
APIO_procNo = 1628
writeThread 1628 on CPU 220
APIO_procNo = 1116
writeThread 1116 on CPU 220
APIO_procNo = 1757
writeThread 1757 on CPU 221
APIO_procNo = 1245
writeThread 1245 on CPU 221
APIO_procNo = 2012
writeThread 2012 on CPU 220
APIO_procNo = 1884
writeThread 1884 on CPU 220
APIO_procNo = 1372
writeThread 1372 on CPU 220
APIO_procNo = 477
writeThread 477 on CPU 221
APIO_procNo = 1500
APIO_procNo = 220
APIO_procNo = 605
writeThread 605 on CPU 221
APIO_procNo = 989
writeThread 989 on CPU 221
APIO_procNo = 733
writeThread 733 on CPU 221
APIO_procNo = 349
writeThread 349 on CPU 221
APIO_procNo = 862
writeThread 862 on CPU 222
APIO_procNo = 1629
writeThread 1629 on CPU 221
APIO_procNo = 1117
writeThread 1117 on CPU 221
APIO_procNo = 1758
writeThread 1758 on CPU 222
APIO_procNo = 1246
writeThread 1246 on CPU 222
APIO_procNo = 2013
writeThread 2013 on CPU 221
APIO_procNo = 1885
writeThread 1885 on CPU 221
APIO_procNo = 1373
writeThread 1373 on CPU 221
APIO_procNo = 478
writeThread 478 on CPU 222
APIO_procNo = 1501
APIO_procNo = 221
APIO_procNo = 606
writeThread 606 on CPU 222
APIO_procNo = 990
writeThread 990 on CPU 222
APIO_procNo = 734
writeThread 734 on CPU 222
APIO_procNo = 350
writeThread 350 on CPU 222
APIO_procNo = 863
writeThread 863 on CPU 223
APIO_procNo = 1630
writeThread 1630 on CPU 222
APIO_procNo = 1118
writeThread 1118 on CPU 222
APIO_procNo = 1759
writeThread 1759 on CPU 223
APIO_procNo = 1247
writeThread 1247 on CPU 223
APIO_procNo = 2014
writeThread 2014 on CPU 222
APIO_procNo = 1886
writeThread 1886 on CPU 222
APIO_procNo = 1374
writeThread 1374 on CPU 222
APIO_procNo = 479
writeThread 479 on CPU 223
APIO_procNo = 1502
APIO_procNo = 222
APIO_procNo = 607
writeThread 607 on CPU 223
APIO_procNo = 991
writeThread 991 on CPU 223
APIO_procNo = 735
writeThread 735 on CPU 223
APIO_procNo = 351
writeThread 351 on CPU 223
APIO_procNo = 864
writeThread 864 on CPU 224
APIO_procNo = 1631
writeThread 1631 on CPU 223
APIO_procNo = 1119
writeThread 1119 on CPU 223
APIO_procNo = 1760
writeThread 1760 on CPU 224
APIO_procNo = 1248
writeThread 1248 on CPU 224
APIO_procNo = 2015
writeThread 2015 on CPU 223
APIO_procNo = 1887
writeThread 1887 on CPU 223
APIO_procNo = 1375
writeThread 1375 on CPU 223
APIO_procNo = 480
writeThread 480 on CPU 224
APIO_procNo = 1503
APIO_procNo = 223
APIO_procNo = 608
writeThread 608 on CPU 224
APIO_procNo = 992
writeThread 992 on CPU 224
APIO_procNo = 736
writeThread 736 on CPU 224
APIO_procNo = 352
writeThread 352 on CPU 224
APIO_procNo = 865
writeThread 865 on CPU 225
APIO_procNo = 1632
writeThread 1632 on CPU 224
APIO_procNo = 1120
writeThread 1120 on CPU 224
APIO_procNo = 1761
writeThread 1761 on CPU 225
APIO_procNo = 1249
writeThread 1249 on CPU 225
APIO_procNo = 2016
APIO_procNo = 1888
writeThread 1888 on CPU 224
APIO_procNo = 1376
writeThread 1376 on CPU 224
APIO_procNo = 481
writeThread 481 on CPU 225
APIO_procNo = 1504
writeThread 1504 on CPU 224
APIO_procNo = 224
writeThread 224 on CPU 224
APIO_procNo = 609
writeThread 609 on CPU 225
APIO_procNo = 993
writeThread 993 on CPU 225
APIO_procNo = 737
writeThread 737 on CPU 225
APIO_procNo = 353
writeThread 353 on CPU 225
APIO_procNo = 866
writeThread 866 on CPU 226
APIO_procNo = 1633
writeThread 1633 on CPU 225
APIO_procNo = 1121
writeThread 1121 on CPU 225
APIO_procNo = 1762
writeThread 1762 on CPU 226
APIO_procNo = 1250
writeThread 1250 on CPU 226
APIO_procNo = 2017
writeThread 2017 on CPU 225
APIO_procNo = 1889
writeThread 1889 on CPU 225
APIO_procNo = 1377
writeThread 1377 on CPU 225
APIO_procNo = 482
writeThread 482 on CPU 226
APIO_procNo = 1505
writeThread 1505 on CPU 225
APIO_procNo = 225
writeThread 225 on CPU 225
APIO_procNo = 610
writeThread 610 on CPU 226
APIO_procNo = 994
writeThread 994 on CPU 226
APIO_procNo = 738
writeThread 738 on CPU 226
APIO_procNo = 354
writeThread 354 on CPU 226
APIO_procNo = 867
writeThread 867 on CPU 227
APIO_procNo = 1634
writeThread 1634 on CPU 226
APIO_procNo = 1122
writeThread 1122 on CPU 226
APIO_procNo = 1763
writeThread 1763 on CPU 227
APIO_procNo = 1251
writeThread 1251 on CPU 227
APIO_procNo = 2018
writeThread 2018 on CPU 226
APIO_procNo = 1890
writeThread 1890 on CPU 226
APIO_procNo = 1378
writeThread 1378 on CPU 226
APIO_procNo = 483
writeThread 483 on CPU 227
APIO_procNo = 1506
writeThread 1506 on CPU 226
APIO_procNo = 226
writeThread 226 on CPU 226
APIO_procNo = 611
writeThread 611 on CPU 227
APIO_procNo = 995
writeThread 995 on CPU 227
APIO_procNo = 739
writeThread 739 on CPU 227
APIO_procNo = 355
writeThread 355 on CPU 227
APIO_procNo = 868
writeThread 868 on CPU 228
APIO_procNo = 1635
writeThread 1635 on CPU 227
APIO_procNo = 1123
writeThread 1123 on CPU 227
APIO_procNo = 1764
writeThread 1764 on CPU 228
APIO_procNo = 1252
writeThread 1252 on CPU 228
APIO_procNo = 2019
writeThread 2019 on CPU 227
APIO_procNo = 1891
writeThread 1891 on CPU 227
APIO_procNo = 1379
writeThread 1379 on CPU 227
APIO_procNo = 484
writeThread 484 on CPU 228
APIO_procNo = 1507
writeThread 1507 on CPU 227
APIO_procNo = 227
writeThread 227 on CPU 227
APIO_procNo = 612
writeThread 612 on CPU 228
APIO_procNo = 996
writeThread 996 on CPU 228
APIO_procNo = 740
writeThread 740 on CPU 228
APIO_procNo = 356
APIO_procNo = 869
writeThread 869 on CPU 229
APIO_procNo = 1636
writeThread 1636 on CPU 228
APIO_procNo = 1124
writeThread 1124 on CPU 228
APIO_procNo = 1765
writeThread 1765 on CPU 229
APIO_procNo = 1253
writeThread 1253 on CPU 229
APIO_procNo = 2020
writeThread 2020 on CPU 228
APIO_procNo = 1892
writeThread 1892 on CPU 228
APIO_procNo = 1380
writeThread 1380 on CPU 228
APIO_procNo = 485
writeThread 485 on CPU 229
APIO_procNo = 1508
APIO_procNo = 228
APIO_procNo = 613
writeThread 613 on CPU 229
APIO_procNo = 997
writeThread 997 on CPU 229
APIO_procNo = 741
writeThread 741 on CPU 229
APIO_procNo = 357
APIO_procNo = 870
writeThread 870 on CPU 230
APIO_procNo = 1637
writeThread 1637 on CPU 229
APIO_procNo = 1125
writeThread 1125 on CPU 229
APIO_procNo = 1766
writeThread 1766 on CPU 230
APIO_procNo = 1254
writeThread 1254 on CPU 230
APIO_procNo = 2021
writeThread 2021 on CPU 229
APIO_procNo = 1893
writeThread 1893 on CPU 229
APIO_procNo = 1381
writeThread 1381 on CPU 229
APIO_procNo = 486
writeThread 486 on CPU 230
APIO_procNo = 1509
APIO_procNo = 229
APIO_procNo = 614
writeThread 614 on CPU 230
APIO_procNo = 998
writeThread 998 on CPU 230
APIO_procNo = 742
writeThread 742 on CPU 230
APIO_procNo = 358
APIO_procNo = 871
writeThread 871 on CPU 231
APIO_procNo = 1638
writeThread 1638 on CPU 230
APIO_procNo = 1126
writeThread 1126 on CPU 230
APIO_procNo = 1767
writeThread 1767 on CPU 231
APIO_procNo = 1255
writeThread 1255 on CPU 231
APIO_procNo = 2022
writeThread 2022 on CPU 230
APIO_procNo = 1894
writeThread 1894 on CPU 230
APIO_procNo = 1382
writeThread 1382 on CPU 230
APIO_procNo = 487
writeThread 487 on CPU 231
APIO_procNo = 1510
APIO_procNo = 230
APIO_procNo = 615
writeThread 615 on CPU 231
APIO_procNo = 999
writeThread 999 on CPU 231
APIO_procNo = 743
writeThread 743 on CPU 231
APIO_procNo = 359
APIO_procNo = 872
writeThread 872 on CPU 232
APIO_procNo = 1639
writeThread 1639 on CPU 231
APIO_procNo = 1127
writeThread 1127 on CPU 231
APIO_procNo = 1768
writeThread 1768 on CPU 232
APIO_procNo = 1256
writeThread 1256 on CPU 232
APIO_procNo = 2023
writeThread 2023 on CPU 231
APIO_procNo = 1895
writeThread 1895 on CPU 231
APIO_procNo = 1383
writeThread 1383 on CPU 231
APIO_procNo = 488
writeThread 488 on CPU 232
APIO_procNo = 1511
APIO_procNo = 231
APIO_procNo = 616
writeThread 616 on CPU 232
APIO_procNo = 1000
writeThread 1000 on CPU 232
APIO_procNo = 744
writeThread 744 on CPU 232
APIO_procNo = 360
APIO_procNo = 873
writeThread 873 on CPU 233
APIO_procNo = 1640
writeThread 1640 on CPU 232
APIO_procNo = 1128
writeThread 1128 on CPU 232
APIO_procNo = 1769
writeThread 1769 on CPU 233
APIO_procNo = 1257
writeThread 1257 on CPU 233
APIO_procNo = 2024
writeThread 2024 on CPU 232
APIO_procNo = 1896
writeThread 1896 on CPU 232
APIO_procNo = 1384
APIO_procNo = 489
writeThread 489 on CPU 233
APIO_procNo = 1512
writeThread 1512 on CPU 232
APIO_procNo = 232
APIO_procNo = 617
writeThread 617 on CPU 233
APIO_procNo = 1001
writeThread 1001 on CPU 233
APIO_procNo = 745
writeThread 745 on CPU 233
APIO_procNo = 361
APIO_procNo = 874
writeThread 874 on CPU 234
APIO_procNo = 1641
writeThread 1641 on CPU 233
APIO_procNo = 1129
writeThread 1129 on CPU 233
APIO_procNo = 1770
writeThread 1770 on CPU 234
APIO_procNo = 1258
writeThread 1258 on CPU 234
APIO_procNo = 2025
writeThread 2025 on CPU 233
APIO_procNo = 1897
writeThread 1897 on CPU 233
APIO_procNo = 1385
APIO_procNo = 490
writeThread 490 on CPU 234
APIO_procNo = 1513
writeThread 1513 on CPU 233
APIO_procNo = 233
APIO_procNo = 618
writeThread 618 on CPU 234
APIO_procNo = 1002
writeThread 1002 on CPU 234
APIO_procNo = 746
writeThread 746 on CPU 234
APIO_procNo = 362
APIO_procNo = 875
writeThread 875 on CPU 235
APIO_procNo = 1642
writeThread 1642 on CPU 234
APIO_procNo = 1130
writeThread 1130 on CPU 234
APIO_procNo = 1771
writeThread 1771 on CPU 235
APIO_procNo = 1259
writeThread 1259 on CPU 235
APIO_procNo = 2026
writeThread 2026 on CPU 234
APIO_procNo = 1898
writeThread 1898 on CPU 234
APIO_procNo = 1386
writeThread 1386 on CPU 234
APIO_procNo = 491
writeThread 491 on CPU 235
APIO_procNo = 1514
writeThread 1514 on CPU 234
APIO_procNo = 234
APIO_procNo = 619
writeThread 619 on CPU 235
APIO_procNo = 1003
writeThread 1003 on CPU 235
APIO_procNo = 747
writeThread 747 on CPU 235
APIO_procNo = 363
APIO_procNo = 876
writeThread 876 on CPU 236
APIO_procNo = 1643
writeThread 1643 on CPU 235
APIO_procNo = 1131
writeThread 1131 on CPU 235
APIO_procNo = 1772
writeThread 1772 on CPU 236
APIO_procNo = 1260
writeThread 1260 on CPU 236
APIO_procNo = 2027
writeThread 2027 on CPU 235
APIO_procNo = 1899
writeThread 1899 on CPU 235
APIO_procNo = 1387
writeThread 1387 on CPU 235
APIO_procNo = 492
writeThread 492 on CPU 236
APIO_procNo = 1515
writeThread 1515 on CPU 235
APIO_procNo = 235
APIO_procNo = 620
writeThread 620 on CPU 236
APIO_procNo = 1004
writeThread 1004 on CPU 236
APIO_procNo = 748
writeThread 748 on CPU 236
APIO_procNo = 364
APIO_procNo = 877
writeThread 877 on CPU 237
APIO_procNo = 1644
writeThread 1644 on CPU 236
APIO_procNo = 1132
writeThread 1132 on CPU 236
APIO_procNo = 1773
writeThread 1773 on CPU 237
APIO_procNo = 1261
writeThread 1261 on CPU 237
APIO_procNo = 2028
writeThread 2028 on CPU 236
APIO_procNo = 1900
writeThread 1900 on CPU 236
APIO_procNo = 1388
writeThread 1388 on CPU 236
APIO_procNo = 493
writeThread 493 on CPU 237
APIO_procNo = 1516
APIO_procNo = 236
APIO_procNo = 621
writeThread 621 on CPU 237
APIO_procNo = 1005
writeThread 1005 on CPU 237
APIO_procNo = 749
writeThread 749 on CPU 237
APIO_procNo = 365
APIO_procNo = 878
writeThread 878 on CPU 238
APIO_procNo = 1645
writeThread 1645 on CPU 237
APIO_procNo = 1133
writeThread 1133 on CPU 237
APIO_procNo = 1774
writeThread 1774 on CPU 238
APIO_procNo = 1262
writeThread 1262 on CPU 238
APIO_procNo = 2029
writeThread 2029 on CPU 237
APIO_procNo = 1901
writeThread 1901 on CPU 237
APIO_procNo = 1389
writeThread 1389 on CPU 237
APIO_procNo = 494
writeThread 494 on CPU 238
APIO_procNo = 1517
APIO_procNo = 237
APIO_procNo = 622
writeThread 622 on CPU 238
APIO_procNo = 1006
writeThread 1006 on CPU 238
APIO_procNo = 750
writeThread 750 on CPU 238
APIO_procNo = 366
APIO_procNo = 879
writeThread 879 on CPU 239
APIO_procNo = 1646
writeThread 1646 on CPU 238
APIO_procNo = 1134
writeThread 1134 on CPU 238
APIO_procNo = 1775
writeThread 1775 on CPU 239
APIO_procNo = 1263
writeThread 1263 on CPU 239
APIO_procNo = 2030
writeThread 2030 on CPU 238
APIO_procNo = 1902
writeThread 1902 on CPU 238
APIO_procNo = 1390
writeThread 1390 on CPU 238
APIO_procNo = 495
writeThread 495 on CPU 239
APIO_procNo = 1518
APIO_procNo = 238
APIO_procNo = 623
writeThread 623 on CPU 239
APIO_procNo = 1007
writeThread 1007 on CPU 239
APIO_procNo = 751
writeThread 751 on CPU 239
APIO_procNo = 367
APIO_procNo = 880
writeThread 880 on CPU 240
APIO_procNo = 1647
writeThread 1647 on CPU 239
APIO_procNo = 1135
writeThread 1135 on CPU 239
APIO_procNo = 1776
APIO_procNo = 1264
writeThread 1264 on CPU 240
APIO_procNo = 2031
writeThread 2031 on CPU 239
APIO_procNo = 1903
writeThread 1903 on CPU 239
APIO_procNo = 1391
writeThread 1391 on CPU 239
APIO_procNo = 496
writeThread 496 on CPU 240
APIO_procNo = 1519
APIO_procNo = 239
APIO_procNo = 624
writeThread 624 on CPU 240
APIO_procNo = 1008
writeThread 1008 on CPU 240
APIO_procNo = 752
writeThread 752 on CPU 240
APIO_procNo = 368
writeThread 368 on CPU 240
APIO_procNo = 881
writeThread 881 on CPU 241
APIO_procNo = 1648
writeThread 1648 on CPU 240
APIO_procNo = 1136
writeThread 1136 on CPU 240
APIO_procNo = 1777
writeThread 1777 on CPU 241
APIO_procNo = 1265
writeThread 1265 on CPU 241
APIO_procNo = 2032
writeThread 2032 on CPU 240
APIO_procNo = 1904
writeThread 1904 on CPU 240
APIO_procNo = 1392
writeThread 1392 on CPU 240
APIO_procNo = 497
writeThread 497 on CPU 241
APIO_procNo = 1520
writeThread 1520 on CPU 240
APIO_procNo = 240
writeThread 240 on CPU 240
APIO_procNo = 625
writeThread 625 on CPU 241
APIO_procNo = 1009
writeThread 1009 on CPU 241
APIO_procNo = 753
writeThread 753 on CPU 241
APIO_procNo = 369
writeThread 369 on CPU 241
APIO_procNo = 882
writeThread 882 on CPU 242
APIO_procNo = 1649
writeThread 1649 on CPU 241
APIO_procNo = 1137
writeThread 1137 on CPU 241
APIO_procNo = 1778
writeThread 1778 on CPU 242
APIO_procNo = 1266
writeThread 1266 on CPU 242
APIO_procNo = 2033
writeThread 2033 on CPU 241
APIO_procNo = 1905
writeThread 1905 on CPU 241
APIO_procNo = 1393
writeThread 1393 on CPU 241
APIO_procNo = 498
writeThread 498 on CPU 242
APIO_procNo = 1521
APIO_procNo = 241
writeThread 241 on CPU 241
APIO_procNo = 626
writeThread 626 on CPU 242
APIO_procNo = 1010
writeThread 1010 on CPU 242
APIO_procNo = 754
writeThread 754 on CPU 242
APIO_procNo = 370
writeThread 370 on CPU 242
APIO_procNo = 883
writeThread 883 on CPU 243
APIO_procNo = 1650
writeThread 1650 on CPU 242
APIO_procNo = 1138
writeThread 1138 on CPU 242
APIO_procNo = 1779
writeThread 1779 on CPU 243
APIO_procNo = 1267
writeThread 1267 on CPU 243
APIO_procNo = 2034
writeThread 2034 on CPU 242
APIO_procNo = 1906
writeThread 1906 on CPU 242
APIO_procNo = 1394
writeThread 1394 on CPU 242
APIO_procNo = 499
writeThread 499 on CPU 243
APIO_procNo = 1522
writeThread 1522 on CPU 242
APIO_procNo = 242
writeThread 242 on CPU 242
APIO_procNo = 627
writeThread 627 on CPU 243
APIO_procNo = 1011
writeThread 1011 on CPU 243
APIO_procNo = 755
writeThread 755 on CPU 243
APIO_procNo = 371
writeThread 371 on CPU 243
APIO_procNo = 884
writeThread 884 on CPU 244
APIO_procNo = 1651
writeThread 1651 on CPU 243
APIO_procNo = 1139
writeThread 1139 on CPU 243
APIO_procNo = 1780
writeThread 1780 on CPU 244
APIO_procNo = 1268
writeThread 1268 on CPU 244
APIO_procNo = 2035
writeThread 2035 on CPU 243
APIO_procNo = 1907
writeThread 1907 on CPU 243
APIO_procNo = 1395
writeThread 1395 on CPU 243
APIO_procNo = 500
writeThread 500 on CPU 244
APIO_procNo = 1523
writeThread 1523 on CPU 243
APIO_procNo = 243
writeThread 243 on CPU 243
APIO_procNo = 628
writeThread 628 on CPU 244
APIO_procNo = 1012
writeThread 1012 on CPU 244
APIO_procNo = 756
writeThread 756 on CPU 244
APIO_procNo = 372
writeThread 372 on CPU 244
APIO_procNo = 885
writeThread 885 on CPU 245
APIO_procNo = 1652
writeThread 1652 on CPU 244
APIO_procNo = 1140
writeThread 1140 on CPU 244
APIO_procNo = 1781
writeThread 1781 on CPU 245
APIO_procNo = 1269
writeThread 1269 on CPU 245
APIO_procNo = 2036
writeThread 2036 on CPU 244
APIO_procNo = 1908
writeThread 1908 on CPU 244
APIO_procNo = 1396
writeThread 1396 on CPU 244
APIO_procNo = 501
writeThread 501 on CPU 245
APIO_procNo = 1524
writeThread 1524 on CPU 244
APIO_procNo = 244
APIO_procNo = 629
APIO_procNo = 1013
writeThread 1013 on CPU 245
APIO_procNo = 757
writeThread 757 on CPU 245
APIO_procNo = 373
writeThread 373 on CPU 245
APIO_procNo = 886
writeThread 886 on CPU 246
APIO_procNo = 1653
writeThread 1653 on CPU 245
APIO_procNo = 1141
writeThread 1141 on CPU 245
APIO_procNo = 1782
writeThread 1782 on CPU 246
APIO_procNo = 1270
writeThread 1270 on CPU 246
APIO_procNo = 2037
writeThread 2037 on CPU 245
APIO_procNo = 1909
writeThread 1909 on CPU 245
APIO_procNo = 1397
writeThread 1397 on CPU 245
APIO_procNo = 502
writeThread 502 on CPU 246
APIO_procNo = 1525
writeThread 1525 on CPU 245
APIO_procNo = 245
writeThread 245 on CPU 245
APIO_procNo = 630
writeThread 630 on CPU 246
APIO_procNo = 1014
writeThread 1014 on CPU 246
APIO_procNo = 758
writeThread 758 on CPU 246
APIO_procNo = 374
writeThread 374 on CPU 246
APIO_procNo = 887
writeThread 887 on CPU 247
APIO_procNo = 1654
writeThread 1654 on CPU 246
APIO_procNo = 1142
writeThread 1142 on CPU 246
APIO_procNo = 1783
writeThread 1783 on CPU 247
APIO_procNo = 1271
writeThread 1271 on CPU 247
APIO_procNo = 2038
writeThread 2038 on CPU 246
APIO_procNo = 1910
writeThread 1910 on CPU 246
APIO_procNo = 1398
writeThread 1398 on CPU 246
APIO_procNo = 503
writeThread 503 on CPU 247
APIO_procNo = 1526
APIO_procNo = 246
writeThread 246 on CPU 246
APIO_procNo = 631
writeThread 631 on CPU 247
APIO_procNo = 1015
writeThread 1015 on CPU 247
APIO_procNo = 759
writeThread 759 on CPU 247
APIO_procNo = 375
APIO_procNo = 888
writeThread 888 on CPU 248
APIO_procNo = 1655
writeThread 1655 on CPU 247
APIO_procNo = 1143
writeThread 1143 on CPU 247
APIO_procNo = 1784
writeThread 1784 on CPU 248
APIO_procNo = 1272
writeThread 1272 on CPU 248
APIO_procNo = 2039
writeThread 2039 on CPU 247
APIO_procNo = 1911
writeThread 1911 on CPU 247
APIO_procNo = 1399
writeThread 1399 on CPU 247
APIO_procNo = 504
writeThread 504 on CPU 248
APIO_procNo = 1527
writeThread 1527 on CPU 247
APIO_procNo = 247
writeThread 247 on CPU 247
APIO_procNo = 632
writeThread 632 on CPU 248
APIO_procNo = 1016
writeThread 1016 on CPU 248
APIO_procNo = 760
writeThread 760 on CPU 248
APIO_procNo = 376
writeThread 376 on CPU 248
APIO_procNo = 889
writeThread 889 on CPU 249
APIO_procNo = 1656
writeThread 1656 on CPU 248
APIO_procNo = 1144
writeThread 1144 on CPU 248
APIO_procNo = 1785
writeThread 1785 on CPU 249
APIO_procNo = 1273
writeThread 1273 on CPU 249
APIO_procNo = 2040
writeThread 2040 on CPU 248
APIO_procNo = 1912
writeThread 1912 on CPU 248
APIO_procNo = 1400
writeThread 1400 on CPU 248
APIO_procNo = 505
writeThread 505 on CPU 249
APIO_procNo = 1528
APIO_procNo = 248
writeThread 248 on CPU 248
APIO_procNo = 633
writeThread 633 on CPU 249
APIO_procNo = 1017
writeThread 1017 on CPU 249
APIO_procNo = 761
writeThread 761 on CPU 249
APIO_procNo = 377
writeThread 377 on CPU 249
APIO_procNo = 890
writeThread 890 on CPU 250
APIO_procNo = 1657
writeThread 1657 on CPU 249
APIO_procNo = 1145
writeThread 1145 on CPU 249
APIO_procNo = 1786
writeThread 1786 on CPU 250
APIO_procNo = 1274
writeThread 1274 on CPU 250
APIO_procNo = 2041
writeThread 2041 on CPU 249
APIO_procNo = 1913
writeThread 1913 on CPU 249
APIO_procNo = 1401
writeThread 1401 on CPU 249
APIO_procNo = 506
writeThread 506 on CPU 250
APIO_procNo = 1529
writeThread 1529 on CPU 249
APIO_procNo = 249
writeThread 249 on CPU 249
APIO_procNo = 634
writeThread 634 on CPU 250
APIO_procNo = 1018
writeThread 1018 on CPU 250
APIO_procNo = 762
writeThread 762 on CPU 250
APIO_procNo = 378
writeThread 378 on CPU 250
APIO_procNo = 891
writeThread 891 on CPU 251
APIO_procNo = 1658
writeThread 1658 on CPU 250
APIO_procNo = 1146
writeThread 1146 on CPU 250
APIO_procNo = 1787
writeThread 1787 on CPU 251
APIO_procNo = 1275
writeThread 1275 on CPU 251
APIO_procNo = 2042
writeThread 2042 on CPU 250
APIO_procNo = 1914
writeThread 1914 on CPU 250
APIO_procNo = 1402
writeThread 1402 on CPU 250
APIO_procNo = 507
writeThread 507 on CPU 251
APIO_procNo = 1530
writeThread 1530 on CPU 250
APIO_procNo = 250
writeThread 250 on CPU 250
APIO_procNo = 635
writeThread 635 on CPU 251
APIO_procNo = 1019
writeThread 1019 on CPU 251
APIO_procNo = 763
writeThread 763 on CPU 251
APIO_procNo = 379
writeThread 379 on CPU 251
APIO_procNo = 892
writeThread 892 on CPU 252
APIO_procNo = 1659
writeThread 1659 on CPU 251
APIO_procNo = 1147
writeThread 1147 on CPU 251
APIO_procNo = 1788
writeThread 1788 on CPU 252
APIO_procNo = 1276
APIO_procNo = 2043
writeThread 2043 on CPU 251
APIO_procNo = 1915
writeThread 1915 on CPU 251
APIO_procNo = 1403
writeThread 1403 on CPU 251
APIO_procNo = 508
writeThread 508 on CPU 252
APIO_procNo = 1531
writeThread 1531 on CPU 251
APIO_procNo = 251
writeThread 251 on CPU 251
APIO_procNo = 636
writeThread 636 on CPU 252
APIO_procNo = 1020
writeThread 1020 on CPU 252
APIO_procNo = 764
writeThread 764 on CPU 252
APIO_procNo = 380
writeThread 380 on CPU 252
APIO_procNo = 893
writeThread 893 on CPU 253
APIO_procNo = 1660
APIO_procNo = 1148
writeThread 1148 on CPU 252
APIO_procNo = 1789
writeThread 1789 on CPU 253
APIO_procNo = 1277
writeThread 1277 on CPU 253
APIO_procNo = 2044
writeThread 2044 on CPU 252
APIO_procNo = 1916
writeThread 1916 on CPU 252
APIO_procNo = 1404
writeThread 1404 on CPU 252
APIO_procNo = 509
writeThread 509 on CPU 253
APIO_procNo = 1532
writeThread 1532 on CPU 252
APIO_procNo = 252
writeThread 252 on CPU 252
APIO_procNo = 637
writeThread 637 on CPU 253
APIO_procNo = 1021
APIO_procNo = 765
writeThread 765 on CPU 253
APIO_procNo = 381
writeThread 381 on CPU 253
APIO_procNo = 894
APIO_procNo = 1661
writeThread 1661 on CPU 253
APIO_procNo = 1149
APIO_procNo = 1790
writeThread 1790 on CPU 254
APIO_procNo = 1278
writeThread 1278 on CPU 254
APIO_procNo = 2045
writeThread 2045 on CPU 253
APIO_procNo = 1917
writeThread 1917 on CPU 253
APIO_procNo = 1405
writeThread 1405 on CPU 253
APIO_procNo = 510
APIO_procNo = 1533
writeThread 1533 on CPU 253
APIO_procNo = 253
writeThread 253 on CPU 253
APIO_procNo = 638
writeThread 638 on CPU 254
APIO_procNo = 1022
writeThread 1022 on CPU 254
APIO_procNo = 766
writeThread 766 on CPU 254
APIO_procNo = 382
writeThread 382 on CPU 254
APIO_procNo = 895
writeThread 895 on CPU 255
APIO_procNo = 1662
writeThread 1662 on CPU 254
APIO_procNo = 1150
writeThread 1150 on CPU 254
APIO_procNo = 1791
writeThread 1791 on CPU 255
APIO_procNo = 1279
writeThread 1279 on CPU 255
APIO_procNo = 2046
writeThread 2046 on CPU 254
APIO_procNo = 1918
writeThread 1918 on CPU 254
APIO_procNo = 1406
writeThread 1406 on CPU 254
APIO_procNo = 511
writeThread 511 on CPU 255
APIO_procNo = 1534
writeThread 1534 on CPU 254
APIO_procNo = 254
writeThread 254 on CPU 254
APIO_procNo = 639
writeThread 639 on CPU 255
APIO_procNo = 1023
writeThread 1023 on CPU 255
APIO_procNo = 767
writeThread 767 on CPU 255
APIO_procNo = 383
writeThread 383 on CPU 255
writeThread 768 on CPU 128
APIO_procNo = 1663
writeThread 1663 on CPU 255
APIO_procNo = 1151
writeThread 1151 on CPU 255
writeThread 1664 on CPU 128
writeThread 1152 on CPU 128
APIO_procNo = 2047
writeThread 2047 on CPU 255
APIO_procNo = 1919
APIO_procNo = 1407
writeThread 1407 on CPU 255
writeThread 384 on CPU 128
APIO_procNo = 1535
writeThread 1535 on CPU 255
APIO_procNo = 255
writeThread 512 on CPU 128
writeThread 896 on CPU 128
writeThread 640 on CPU 128
writeThread 256 on CPU 128
writeThread 769 on CPU 129
writeThread 1660 on CPU 252
writeThread 1024 on CPU 128
writeThread 1665 on CPU 129
writeThread 1153 on CPU 129
writeThread 1920 on CPU 128
writeThread 1792 on CPU 128
writeThread 1280 on CPU 128
writeThread 385 on CPU 129
writeThread 1408 on CPU 128
writeThread 134 on CPU 134
writeThread 513 on CPU 129
writeThread 897 on CPU 129
writeThread 641 on CPU 129
writeThread 257 on CPU 129
writeThread 770 on CPU 130
writeThread 1025 on CPU 129
writeThread 1666 on CPU 130
writeThread 1154 on CPU 130
writeThread 1921 on CPU 129
writeThread 1793 on CPU 129
writeThread 1281 on CPU 129
writeThread 386 on CPU 130
writeThread 1409 on CPU 129
writeThread 138 on CPU 138
writeThread 514 on CPU 130
writeThread 898 on CPU 130
writeThread 642 on CPU 130
writeThread 258 on CPU 130
writeThread 771 on CPU 131
writeThread 1026 on CPU 130
writeThread 1667 on CPU 131
writeThread 1155 on CPU 131
writeThread 1922 on CPU 130
writeThread 1794 on CPU 130
writeThread 1282 on CPU 130
writeThread 387 on CPU 131
writeThread 1410 on CPU 130
writeThread 140 on CPU 140
writeThread 515 on CPU 131
writeThread 899 on CPU 131
writeThread 643 on CPU 131
writeThread 259 on CPU 131
writeThread 772 on CPU 132
writeThread 1027 on CPU 131
writeThread 1668 on CPU 132
writeThread 1156 on CPU 132
writeThread 1923 on CPU 131
writeThread 1795 on CPU 131
writeThread 1283 on CPU 131
writeThread 392 on CPU 136
writeThread 1411 on CPU 131
writeThread 141 on CPU 141
writeThread 516 on CPU 132
writeThread 900 on CPU 132
writeThread 644 on CPU 132
writeThread 260 on CPU 132
writeThread 773 on CPU 133
writeThread 1028 on CPU 132
writeThread 1669 on CPU 133
writeThread 1157 on CPU 133
writeThread 1924 on CPU 132
writeThread 1796 on CPU 132
writeThread 1284 on CPU 132
writeThread 393 on CPU 137
writeThread 1412 on CPU 132
writeThread 145 on CPU 145
writeThread 517 on CPU 133
writeThread 901 on CPU 133
writeThread 645 on CPU 133
writeThread 261 on CPU 133
writeThread 774 on CPU 134
writeThread 1029 on CPU 133
writeThread 1670 on CPU 134
writeThread 1158 on CPU 134
writeThread 1925 on CPU 133
writeThread 1797 on CPU 133
writeThread 1285 on CPU 133
writeThread 394 on CPU 138
writeThread 1413 on CPU 133
writeThread 147 on CPU 147
[...]
time step continuity errors : sum local = 8.864754580063156e-10, global = -2.602198461625182e-10, cumulative = -1.255237280892704e-08
DILUPBiCG:  Solving for p, Initial residual = 0.0001165115444569575, Final residual = 8.402660473203372e-13, No Iterations 4
pEqnloop: 1
diagonal:  Solving for rho, Initial residual = 0, Final residual = 0, No Iterations 0
time step continuity errors : sum local = 1.997306493464952e-16, global = 5.483198549046032e-17, cumulative = -1.255237275409505e-08
DILUPBiCG:  Solving for k, Initial residual = 0.009033799781970477, Final residual = 1.351881704053209e-14, No Iterations 6
ExecutionTime = 1825.96 s  ClockTime = 5415 s

Courant Number mean: 2.171120743536406e-06 max: 0.2001607570467168
deltaT = 2.740301645492887e-06
Time = 0.000170555

PIMPLE: iteration 1
diagonal:  Solving for rho, Initial residual = 0, Final residual = 0, No Iterations 0
DILUPBiCG:  Solving for Ux, Initial residual = 0.01634377764116115, Final residual = 1.311291816400558e-13, No Iterations 5
DILUPBiCG:  Solving for Uy, Initial residual = 0.01634355911407505, Final residual = 2.460729947870542e-13, No Iterations 5
DILUPBiCG:  Solving for Uz, Initial residual = 0.008071722052965417, Final residual = 1.965152557584737e-13, No Iterations 5
DILUPBiCG:  Solving for e, Initial residual = 0.0112921482194419, Final residual = 8.062160760086563e-13, No Iterations 4
DILUPBiCG:  Solving for p, Initial residual = 0.01468345564261161, Final residual = 2.16928440599632e-05, No Iterations 1
pEqnloop: 0
diagonal:  Solving for rho, Initial residual = 0, Final residual = 0, No Iterations 0
time step continuity errors : sum local = 8.841059618054845e-10, global = -2.559381088705873e-10, cumulative = -1.280831086296564e-08
DILUPBiCG:  Solving for p, Initial residual = 0.0001142005621936407, Final residual = 6.932023954979258e-13, No Iterations 4
pEqnloop: 1
diagonal:  Solving for rho, Initial residual = 0, Final residual = 0, No Iterations 0
time step continuity errors : sum local = 1.96914423829373e-16, global = 6.396187608322618e-17, cumulative = -1.280831079900376e-08
DILUPBiCG:  Solving for k, Initial residual = 0.009101842492481723, Final residual = 3.633744783147878e-13, No Iterations 5
ExecutionTime = 1838.2 s  ClockTime = 5452 s

Courant Number mean: 2.222251910387299e-06 max: 0.1996605554020744
deltaT = 2.74496045548354e-06
Time = 0.0001733

PIMPLE: iteration 1
diagonal:  Solving for rho, Initial residual = 0, Final residual = 0, No Iterations 0
DILUPBiCG:  Solving for Ux, Initial residual = 0.01620154694291484, Final residual = 1.063099582624086e-13, No Iterations 5
DILUPBiCG:  Solving for Uy, Initial residual = 0.01620153599168925, Final residual = 2.400183376213501e-13, No Iterations 5
DILUPBiCG:  Solving for Uz, Initial residual = 0.008008216609153424, Final residual = 1.961500909158466e-13, No Iterations 5
DILUPBiCG:  Solving for e, Initial residual = 0.01123409326536833, Final residual = 9.375644429238239e-13, No Iterations 4
DILUPBiCG:  Solving for p, Initial residual = 0.0146296711546918, Final residual = 2.142458063300829e-05, No Iterations 1
pEqnloop: 0
diagonal:  Solving for rho, Initial residual = 0, Final residual = 0, No Iterations 0
time step continuity errors : sum local = 8.886727618700017e-10, global = -2.60962560449924e-10, cumulative = -1.306927335945368e-08
DILUPBiCG:  Solving for p, Initial residual = 9.909655767202889e-05, Final residual = 7.653285790611953e-13, No Iterations 4
pEqnloop: 1
diagonal:  Solving for rho, Initial residual = 0, Final residual = 0, No Iterations 0
time step continuity errors : sum local = 1.993149281929193e-16, global = -5.674973944158933e-17, cumulative = -1.306927341620342e-08
DILUPBiCG:  Solving for k, Initial residual = 0.009159103258024137, Final residual = 4.652705309792189e-15, No Iterations 6
ExecutionTime = 1846.96 s  ClockTime = 5494 s

Courant Number mean: 2.280045898840918e-06 max: 0.1995639723393745
deltaT = 2.75095792422442e-06
Time = 0.000176051

PIMPLE: iteration 1
diagonal:  Solving for rho, Initial residual = 0, Final residual = 0, No Iterations 0
DILUPBiCG:  Solving for Ux, Initial residual = 0.01607375012037098, Final residual = 9.031338145323279e-14, No Iterations 5
DILUPBiCG:  Solving for Uy, Initial residual = 0.01607333243577319, Final residual = 2.368130052437163e-13, No Iterations 5
DILUPBiCG:  Solving for Uz, Initial residual = 0.007961872165400008, Final residual = 1.973186387117981e-13, No Iterations 5
DILUPBiCG:  Solving for e, Initial residual = 0.01117018711192047, Final residual = 4.637036422199041e-13, No Iterations 4
DILUPBiCG:  Solving for p, Initial residual = 0.01457797199337786, Final residual = 2.136325522013417e-05, No Iterations 1
pEqnloop: 0
diagonal:  Solving for rho, Initial residual = 0, Final residual = 0, No Iterations 0
time step continuity errors : sum local = 9.01691412973199e-10, global = -2.775801340312261e-10, cumulative = -1.334685355023465e-08
DILUPBiCG:  Solving for p, Initial residual = 0.0001037613751447143, Final residual = 1.28534877640844e-14, No Iterations 5
pEqnloop: 1
diagonal:  Solving for rho, Initial residual = 0, Final residual = 0, No Iterations 0
time step continuity errors : sum local = 1.872380976870002e-16, global = 1.13276406140439e-16, cumulative = -1.334685343695824e-08
DILUPBiCG:  Solving for k, Initial residual = 0.009186981041484115, Final residual = 2.898784024202921e-13, No Iterations 5
ExecutionTime = 1861.73 s  ClockTime = 5530 s

Courant Number mean: 2.339884437250127e-06 max: 0.1996182789856676
deltaT = 2.756218456749567e-06
Time = 0.000178807

PIMPLE: iteration 1
diagonal:  Solving for rho, Initial residual = 0, Final residual = 0, No Iterations 0
DILUPBiCG:  Solving for Ux, Initial residual = 0.01592644624274558, Final residual = 7.993634053024249e-14, No Iterations 5
DILUPBiCG:  Solving for Uy, Initial residual = 0.0159258991276515, Final residual = 2.362234945933635e-13, No Iterations 5
DILUPBiCG:  Solving for Uz, Initial residual = 0.007905054657821767, Final residual = 1.966750419041264e-13, No Iterations 5
DILUPBiCG:  Solving for e, Initial residual = 0.01117132118304116, Final residual = 3.421154477345366e-13, No Iterations 4
DILUPBiCG:  Solving for p, Initial residual = 0.01458206905258947, Final residual = 2.095317509204764e-05, No Iterations 1
pEqnloop: 0
diagonal:  Solving for rho, Initial residual = 0, Final residual = 0, No Iterations 0
time step continuity errors : sum local = 8.997347972913731e-10, global = -2.71080944635583e-10, cumulative = -1.361793438159383e-08
DILUPBiCG:  Solving for p, Initial residual = 9.785200883462391e-05, Final residual = 8.637703810764319e-13, No Iterations 4
pEqnloop: 1
diagonal:  Solving for rho, Initial residual = 0, Final residual = 0, No Iterations 0
time step continuity errors : sum local = 2.086669780187984e-16, global = 7.059690122572815e-17, cumulative = -1.361793431099693e-08
DILUPBiCG:  Solving for k, Initial residual = 0.009189667054995311, Final residual = 7.899392487144253e-14, No Iterations 5
ExecutionTime = 1869.94 s  ClockTime = 5566 s

Courant Number mean: 2.399503641655697e-06 max: 0.199472250781477
deltaT = 2.763510659704749e-06
Time = 0.000181571

PIMPLE: iteration 1
diagonal:  Solving for rho, Initial residual = 0, Final residual = 0, No Iterations 0
DILUPBiCG:  Solving for Ux, Initial residual = 0.01578101869982857, Final residual = 7.415522343157137e-14, No Iterations 5
DILUPBiCG:  Solving for Uy, Initial residual = 0.01578055443231152, Final residual = 2.399984316516017e-13, No Iterations 5
DILUPBiCG:  Solving for Uz, Initial residual = 0.007826487270037867, Final residual = 1.944492940022885e-13, No Iterations 5
DILUPBiCG:  Solving for e, Initial residual = 0.01124212462702807, Final residual = 3.237248264494099e-13, No Iterations 4
DILUPBiCG:  Solving for p, Initial residual = 0.01458816817070141, Final residual = 2.09096072917966e-05, No Iterations 1
pEqnloop: 0
diagonal:  Solving for rho, Initial residual = 0, Final residual = 0, No Iterations 0
time step continuity errors : sum local = 9.132434932687669e-10, global = -2.748776638455854e-10, cumulative = -1.389281197484251e-08
DILUPBiCG:  Solving for p, Initial residual = 0.0001014401414082942, Final residual = 1.554279583722211e-14, No Iterations 5
pEqnloop: 1
diagonal:  Solving for rho, Initial residual = 0, Final residual = 0, No Iterations 0
time step continuity errors : sum local = 1.637642328168338e-16, global = 1.772142274658306e-17, cumulative = -1.389281195712109e-08
DILUPBiCG:  Solving for k, Initial residual = 0.009177250181029946, Final residual = 2.015401965411333e-14, No Iterations 5
ExecutionTime = 1895.1 s  ClockTime = 5608 s

Courant Number mean: 2.461568856148607e-06 max: 0.1990696508154875
deltaT = 2.77642588750624e-06
Time = 0.000184347

PIMPLE: iteration 1
diagonal:  Solving for rho, Initial residual = 0, Final residual = 0, No Iterations 0
DILUPBiCG:  Solving for Ux, Initial residual = 0.01565976555126735, Final residual = 7.180793783179484e-14, No Iterations 5
DILUPBiCG:  Solving for Uy, Initial residual = 0.01565956388109511, Final residual = 2.4998324086408e-13, No Iterations 5
DILUPBiCG:  Solving for Uz, Initial residual = 0.007787949533023857, Final residual = 1.927279081439053e-13, No Iterations 5
DILUPBiCG:  Solving for e, Initial residual = 0.01121655340384538, Final residual = 3.255379241850069e-13, No Iterations 4
DILUPBiCG:  Solving for p, Initial residual = 0.0145204690245593, Final residual = 2.115194710738826e-05, No Iterations 1
pEqnloop: 0
diagonal:  Solving for rho, Initial residual = 0, Final residual = 0, No Iterations 0
time step continuity errors : sum local = 9.394651148768335e-10, global = -2.864691296236091e-10, cumulative = -1.41792810867447e-08
DILUPBiCG:  Solving for p, Initial residual = 0.0001003085476509737, Final residual = 8.735960585291055e-15, No Iterations 5
pEqnloop: 1
diagonal:  Solving for rho, Initial residual = 0, Final residual = 0, No Iterations 0
time step continuity errors : sum local = 1.687911051913259e-16, global = 6.689333228859463e-17, cumulative = -1.417928101985136e-08
DILUPBiCG:  Solving for k, Initial residual = 0.009160990430308354, Final residual = 2.536004728587072e-14, No Iterations 5
ExecutionTime = 1903.46 s  ClockTime = 5650 s

Courant Number mean: 2.529861217619377e-06 max: 0.1984621148713698
deltaT = 2.797940442492739e-06
Time = 0.000187145

PIMPLE: iteration 1
diagonal:  Solving for rho, Initial residual = 0, Final residual = 0, No Iterations 0
DILUPBiCG:  Solving for Ux, Initial residual = 0.015621014607985, Final residual = 7.17601983043345e-14, No Iterations 5
DILUPBiCG:  Solving for Uy, Initial residual = 0.0156208149439777, Final residual = 2.683088715406231e-13, No Iterations 5
DILUPBiCG:  Solving for Uz, Initial residual = 0.007790743550445889, Final residual = 1.931572410418329e-13, No Iterations 5
DILUPBiCG:  Solving for e, Initial residual = 0.01124806296329475, Final residual = 1.843060221986158e-14, No Iterations 5
DILUPBiCG:  Solving for p, Initial residual = 0.01462978472239264, Final residual = 2.132484603679579e-05, No Iterations 1
pEqnloop: 0
diagonal:  Solving for rho, Initial residual = 0, Final residual = 0, No Iterations 0
time step continuity errors : sum local = 9.630511140635705e-10, global = -2.932394590589784e-10, cumulative = -1.447252047891034e-08
DILUPBiCG:  Solving for p, Initial residual = 9.923690803977034e-05, Final residual = 9.392269747962251e-15, No Iterations 5
pEqnloop: 1
diagonal:  Solving for rho, Initial residual = 0, Final residual = 0, No Iterations 0
time step continuity errors : sum local = 1.824385598027369e-16, global = -9.6269683495935e-17, cumulative = -1.447252057518003e-08
DILUPBiCG:  Solving for k, Initial residual = 0.009179770477050741, Final residual = 2.238542321033782e-14, No Iterations 5
ExecutionTime = 1921.5 s  ClockTime = 5694 s

Courant Number mean: 2.60755074641308e-06 max: 0.2007292911939263
deltaT = 2.787774943906529e-06
Time = 0.000189933

PIMPLE: iteration 1
diagonal:  Solving for rho, Initial residual = 0, Final residual = 0, No Iterations 0
DILUPBiCG:  Solving for Ux, Initial residual = 0.0154500805019658, Final residual = 6.80185941844766e-14, No Iterations 5
DILUPBiCG:  Solving for Uy, Initial residual = 0.01544962610297966, Final residual = 2.704267611125557e-13, No Iterations 5
DILUPBiCG:  Solving for Uz, Initial residual = 0.007700139580897871, Final residual = 1.836091466916777e-13, No Iterations 5
DILUPBiCG:  Solving for e, Initial residual = 0.01123420334800027, Final residual = 1.802259350623882e-14, No Iterations 5
DILUPBiCG:  Solving for p, Initial residual = 0.01452892294011825, Final residual = 2.021273416141857e-05, No Iterations 1
pEqnloop: 0
diagonal:  Solving for rho, Initial residual = 0, Final residual = 0, No Iterations 0
time step continuity errors : sum local = 9.280087872404607e-10, global = -2.669953537570312e-10, cumulative = -1.473951592893706e-08
DILUPBiCG:  Solving for p, Initial residual = 0.0001009439928731447, Final residual = 1.485351555335815e-14, No Iterations 5
pEqnloop: 1
diagonal:  Solving for rho, Initial residual = 0, Final residual = 0, No Iterations 0
time step continuity errors : sum local = 1.65919706926525e-16, global = 4.449064362194346e-17, cumulative = -1.473951588444641e-08
DILUPBiCG:  Solving for k, Initial residual = 0.009120968292177383, Final residual = 6.769359194189657e-15, No Iterations 5
ExecutionTime = 1932.46 s  ClockTime = 5741 s

Courant Number mean: 2.656078799997108e-06 max: 0.2018816363054013
deltaT = 2.761791508058951e-06
Time = 0.000192695

PIMPLE: iteration 1
diagonal:  Solving for rho, Initial residual = 0, Final residual = 0, No Iterations 0
DILUPBiCG:  Solving for Ux, Initial residual = 0.01520702993378544, Final residual = 6.216327919853663e-14, No Iterations 5
DILUPBiCG:  Solving for Uy, Initial residual = 0.01520669830126822, Final residual = 2.570410509890315e-13, No Iterations 5
DILUPBiCG:  Solving for Uz, Initial residual = 0.007564555470291297, Final residual = 1.677232900513021e-13, No Iterations 5
DILUPBiCG:  Solving for e, Initial residual = 0.01109853671227276, Final residual = 4.06636990863873e-14, No Iterations 5
DILUPBiCG:  Solving for p, Initial residual = 0.01439650043260168, Final residual = 1.928693933803925e-05, No Iterations 1
pEqnloop: 0
diagonal:  Solving for rho, Initial residual = 0, Final residual = 0, No Iterations 0
time step continuity errors : sum local = 8.999417647876729e-10, global = -2.565310703348127e-10, cumulative = -1.499604695478122e-08
DILUPBiCG:  Solving for p, Initial residual = 9.394728834626841e-05, Final residual = 1.166609018559552e-14, No Iterations 5
pEqnloop: 1
diagonal:  Solving for rho, Initial residual = 0, Final residual = 0, No Iterations 0
time step continuity errors : sum local = 1.848977671487647e-16, global = -1.076154919875991e-16, cumulative = -1.499604706239672e-08
DILUPBiCG:  Solving for k, Initial residual = 0.009041982885212728, Final residual = 1.220439593337611e-14, No Iterations 5
ExecutionTime = 1939.92 s  ClockTime = 5787 s

Courant Number mean: 2.687674569064416e-06 max: 0.2016290343176919
deltaT = 2.739477989769456e-06
Time = 0.000195434

PIMPLE: iteration 1
diagonal:  Solving for rho, Initial residual = 0, Final residual = 0, No Iterations 0
DILUPBiCG:  Solving for Ux, Initial residual = 0.01496848510309679, Final residual = 5.752047577240886e-14, No Iterations 5
DILUPBiCG:  Solving for Uy, Initial residual = 0.01496825852590796, Final residual = 2.405701027242714e-13, No Iterations 5
DILUPBiCG:  Solving for Uz, Initial residual = 0.007422075072520868, Final residual = 1.533135525046149e-13, No Iterations 5
DILUPBiCG:  Solving for e, Initial residual = 0.01099301154210256, Final residual = 1.683894189411989e-14, No Iterations 5
DILUPBiCG:  Solving for p, Initial residual = 0.01416328016139398, Final residual = 1.830607572637627e-05, No Iterations 1
pEqnloop: 0
diagonal:  Solving for rho, Initial residual = 0, Final residual = 0, No Iterations 0
time step continuity errors : sum local = 8.67935034502495e-10, global = -2.479191981561524e-10, cumulative = -1.524396626055287e-08
DILUPBiCG:  Solving for p, Initial residual = 9.877751422453431e-05, Final residual = 9.538571880131763e-15, No Iterations 5
pEqnloop: 1
diagonal:  Solving for rho, Initial residual = 0, Final residual = 0, No Iterations 0
time step continuity errors : sum local = 1.69394345599135e-16, global = -6.46666487564167e-17, cumulative = -1.524396632521952e-08
DILUPBiCG:  Solving for k, Initial residual = 0.00898712288221269, Final residual = 5.450767268955597e-14, No Iterations 5
ExecutionTime = 1953.22 s  ClockTime = 5828 s

Courant Number mean: 2.721122274943642e-06 max: 0.2007890414089759
deltaT = 2.728712653385853e-06
Time = 0.000198163

PIMPLE: iteration 1
diagonal:  Solving for rho, Initial residual = 0, Final residual = 0, No Iterations 0
DILUPBiCG:  Solving for Ux, Initial residual = 0.0147790232970354, Final residual = 5.527398156450988e-14, No Iterations 5
DILUPBiCG:  Solving for Uy, Initial residual = 0.01477933739248802, Final residual = 2.286842651335261e-13, No Iterations 5
DILUPBiCG:  Solving for Uz, Initial residual = 0.007325349861825483, Final residual = 1.442052054602388e-13, No Iterations 5
DILUPBiCG:  Solving for e, Initial residual = 0.01087751122492905, Final residual = 1.491062065071629e-14, No Iterations 5
DILUPBiCG:  Solving for p, Initial residual = 0.01402152748701454, Final residual = 1.789261566049503e-05, No Iterations 1
pEqnloop: 0
diagonal:  Solving for rho, Initial residual = 0, Final residual = 0, No Iterations 0
time step continuity errors : sum local = 8.619537861198753e-10, global = -2.497417179622973e-10, cumulative = -1.549370804318181e-08
DILUPBiCG:  Solving for p, Initial residual = 9.124446867285307e-05, Final residual = 1.894076422253692e-14, No Iterations 5
pEqnloop: 1
diagonal:  Solving for rho, Initial residual = 0, Final residual = 0, No Iterations 0
time step continuity errors : sum local = 1.606344840293816e-16, global = 2.297444374560294e-17, cumulative = -1.549370802020737e-08
DILUPBiCG:  Solving for k, Initial residual = 0.008970870650213543, Final residual = 2.134415131051148e-13, No Iterations 5
ExecutionTime = 1973.6 s  ClockTime = 5878 s

Courant Number mean: 2.765884446995826e-06 max: 0.2003308668193873
deltaT = 2.724205906667363e-06
Time = 0.000200887

PIMPLE: iteration 1
diagonal:  Solving for rho, Initial residual = 0, Final residual = 0, No Iterations 0
DILUPBiCG:  Solving for Ux, Initial residual = 0.01464954558267052, Final residual = 5.409852977695938e-14, No Iterations 5
DILUPBiCG:  Solving for Uy, Initial residual = 0.01464998834605117, Final residual = 2.213637216790602e-13, No Iterations 5
DILUPBiCG:  Solving for Uz, Initial residual = 0.007273336328298091, Final residual = 1.385530171520975e-13, No Iterations 5
DILUPBiCG:  Solving for e, Initial residual = 0.01085491643640672, Final residual = 1.493812538605305e-14, No Iterations 5
DILUPBiCG:  Solving for p, Initial residual = 0.01395482475921243, Final residual = 1.77314285592742e-05, No Iterations 1
pEqnloop: 0
diagonal:  Solving for rho, Initial residual = 0, Final residual = 0, No Iterations 0
time step continuity errors : sum local = 8.678335148663925e-10, global = -2.525752496358198e-10, cumulative = -1.574628326984319e-08
DILUPBiCG:  Solving for p, Initial residual = 9.044150237660241e-05, Final residual = 8.882807461832242e-15, No Iterations 5
pEqnloop: 1
diagonal:  Solving for rho, Initial residual = 0, Final residual = 0, No Iterations 0
time step continuity errors : sum local = 1.777867417317199e-16, global = -9.16242505302232e-17, cumulative = -1.574628336146744e-08
DILUPBiCG:  Solving for k, Initial residual = 0.008982129799085619, Final residual = 1.064170922888766e-13, No Iterations 5
ExecutionTime = 1984.62 s  ClockTime = 5917 s

Terminating ...
End

APIO_IO_TIME = 2322.883937206379
Finalising parallel run
