/*---------------------------------------------------------------------------*\
| =========                 |                                                 |
| \\      /  F ield         | OpenFOAM: The Open Source CFD Toolbox           |
|  \\    /   O peration     | Version:  v1912                                 |
|   \\  /    A nd           | Website:  www.openfoam.com                      |
|    \\/     M anipulation  |                                                 |
\*---------------------------------------------------------------------------*/
Build  : _f3950763fe-20191219 OPENFOAM=1912
Arch   : "LSB;label=32;scalar=64"
Exec   : rhoPimpleFoam_METRICS -parallel
Date   : Oct 27 2020
Time   : 14:20:10
Host   : r42c4t1n2
PID    : 153954
I/O    : uncollated
Case   : /lustre/cray/ws9/2/ws/hpcmcast-ashee2/HAWK/apio_64M/2048
nProcs : 2048
Hosts  :
(
    (r42c4t1n2 128)
    (r42c4t1n3 128)
    (r42c4t1n4 128)
    (r42c4t2n1 128)
    (r42c4t2n2 128)
    (r42c4t2n3 128)
    (r42c4t2n4 128)
    (r42c4t3n1 128)
    (r42c4t3n3 128)
    (r42c4t3n4 128)
    (r42c4t4n1 128)
    (r42c4t4n2 128)
    (r42c4t4n3 128)
    (r43c2t3n2 128)
    (r43c2t3n3 128)
    (r43c2t3n4 128)
)
Pstream initialized with:
    floatTransfer      : 0
    nProcsSimpleSum    : 0
    commsType          : nonBlocking
    polling iterations : 0
trapFpe: Floating point exception trapping enabled (FOAM_SIGFPE).
fileModificationChecking : Monitoring run-time modified files using timeStampMaster (fileModificationSkew 10)
allowSystemOperations : Allowing user-supplied system call operations

// * * * * * * * * * * * * * * * * * * * * * * * * * * * * * * * * * * * * * //
Create time

Create mesh for time = 0


PIMPLE: Operating solver in PISO mode

Reading thermophysical properties

Selecting thermodynamics package 
{
    type            hePsiThermo;
    mixture         pureMixture;
    transport       const;
    thermo          eConst;
    equationOfState perfectGas;
    specie          specie;
    energy          sensibleInternalEnergy;
}

Reading field U

Reading/calculating face flux field phi

--> FOAM Warning : 
    From function Foam::pressureControl::pressureControl(const volScalarField&, const volScalarField&, const Foam::dictionary&, bool)
    in file cfdTools/general/pressureControl/pressureControl.C at line 123
    Reading "/lustre/cray/ws9/2/ws/hpcmcast-ashee2/HAWK/apio_64M/2048/system/fvSolution.PIMPLE"
    'rhoMax' specified rather than 'pMax' or 'pMaxFactor'
    This is supported for backward-compatibility but 'pMax' or 'pMaxFactor' are more reliable.
--> FOAM Warning : 
    From function Foam::pressureControl::pressureControl(const volScalarField&, const volScalarField&, const Foam::dictionary&, bool)
    in file cfdTools/general/pressureControl/pressureControl.C at line 178
    Reading "/lustre/cray/ws9/2/ws/hpcmcast-ashee2/HAWK/apio_64M/2048/system/fvSolution.PIMPLE"
    'rhoMin' specified rather than 'pMin' or 'pMinFactor'
    This is supported for backward-compatibility but 'pMin' or 'pMinFactor' are more reliable.
pressureControl
    pMax 1726187.557059955
    pMin 4747.015781914877

Creating turbulence model

Selecting turbulence model type LES
Selecting LES turbulence model kEqn
Selecting LES delta type cubeRootVol
LES
{
    LESModel        kEqn;
    turbulence      on;
    printCoeffs     on;
    delta           cubeRootVol;
    cubeRootVolCoeffs
    {
        deltaCoeff      1;
    }
    PrandtlCoeffs
    {
        delta           cubeRootVol;
        cubeRootVolCoeffs
        {
            deltaCoeff      1;
        }
        smoothCoeffs
        {
            delta           cubeRootVol;
            cubeRootVolCoeffs
            {
                deltaCoeff      1;
            }
            maxDeltaRatio   1.1;
        }
        Cdelta          0.158;
    }
    vanDriestCoeffs
    {
        delta           cubeRootVol;
        cubeRootVolCoeffs
        {
            deltaCoeff      1;
        }
        smoothCoeffs
        {
            delta           cubeRootVol;
            cubeRootVolCoeffs
            {
                deltaCoeff      1;
            }
            maxDeltaRatio   1.1;
        }
        Aplus           26;
        Cdelta          0.158;
    }
    smoothCoeffs
    {
        delta           cubeRootVol;
        cubeRootVolCoeffs
        {
            deltaCoeff      1;
        }
        maxDeltaRatio   1.1;
    }
    Ce              1.048;
    Ck              0.094;
}

Creating field dpdt

Creating field kinetic energy K

No MRF models present

procNo = 16
procNo = 17
procNo = 18
procNo = 19
procNo = 20
procNo = 21
procNo = 22
procNo = 23
procNo = 24
procNo = 25
procNo = 26
procNo = 27
procNo = 28
procNo = 29
procNo = 30
procNo = 31
procNo = 32
procNo = 33
procNo = 34
procNo = 35
procNo = 36
procNo = 37
procNo = 38
procNo = 39
procNo = 40
procNo = 41
procNo = 42
procNo = 43
procNo = 44
procNo = 45
procNo = 46
procNo = 47
procNo = 48
procNo = 49
procNo = 50
procNo = 51
procNo = 52
procNo = 53
procNo = 54
procNo = 55
procNo = 56
procNo = 57
procNo = 58
procNo = 59
procNo = 60
procNo = 61
procNo = 62
procNo = 63
procNo = 64
procNo = 65
procNo = 66
procNo = 67
procNo = 68
procNo = 69
procNo = 70
procNo = 71
procNo = 72
procNo = 73
procNo = 74
procNo = 75
procNo = 76
procNo = 77
procNo = 78
procNo = 79
procNo = 80
procNo = 81
procNo = 82
procNo = 83
procNo = 84
procNo = 85
procNo = 86
procNo = 87
procNo = 88
procNo = 89
procNo = 90
procNo = 91
procNo = 92
procNo = 93
procNo = 94
procNo = 95
procNo = 96
procNo = 97
procNo = 98
procNo = 99
procNo = 100
procNo = 101
procNo = 102
procNo = 103
procNo = 104
procNo = 105
procNo = 106
procNo = 107
procNo = 108
procNo = 109
procNo = 110
procNo = 111
procNo = 112
procNo = 113
procNo = 114
procNo = 115
procNo = 116
procNo = 117
procNo = 118
procNo = 119
procNo = 120
procNo = 121
procNo = 122
procNo = 123
procNo = 124
procNo = 125
procNo = 126
procNo = 127
No finite volume options present
procNo = 0
masterNo = 0
procNo = 1
procNo = 2
procNo = 3
procNo = 4
procNo = 5
procNo = 6
procNo = 7
procNo = 8
procNo = 9
procNo = 10
procNo = 11
procNo = 12
procNo = 13
procNo = 14
procNo = 15
procNo = 256
procNo = 1408
procNo = 384
procNo = 1536
procNo = 768
procNo = 1024
procNo = 1792
procNo = 1664
procNo = 1280
procNo = 257
procNo = 896
procNo = 1409
procNo = 1152
procNo = 385
procNo = 640
procNo = 1537
procNo = 769
procNo = 1025
procNo = 1793
procNo = 1665
procNo = 128
procNo = 1281
procNo = 258
procNo = 897
procNo = 1410
procNo = 1153
procNo = 386
procNo = 641
procNo = 1538
procNo = 770
procNo = 1026
procNo = 1794
procNo = 1666
procNo = 512
procNo = 1920
procNo = 129
procNo = 1282
procNo = 259
procNo = 898
procNo = 1411
procNo = 1154
procNo = 387
procNo = 642
procNo = 1539
procNo = 771
procNo = 1027
procNo = 1795
procNo = 1667
procNo = 513
procNo = 1921
procNo = 130
procNo = 1283
procNo = 260
procNo = 899
procNo = 1412
procNo = 1155
procNo = 388
procNo = 643
procNo = 1540
procNo = 772
procNo = 1028
procNo = 1796
procNo = 1668
procNo = 514
procNo = 1922
procNo = 131
procNo = 1284
procNo = 261
procNo = 900
procNo = 1413
procNo = 1156
procNo = 389
procNo = 644
procNo = 1541
procNo = 773
procNo = 1029
procNo = 1797
procNo = 1669
procNo = 515
procNo = 1923
procNo = 132
procNo = 1285
procNo = 262
procNo = 901
procNo = 1414
procNo = 1157
procNo = 390
procNo = 645
procNo = 1542
procNo = 774
procNo = 1030
procNo = 1798
procNo = 1670
procNo = 516
procNo = 1924
procNo = 133
procNo = 1286
procNo = 263
procNo = 902
procNo = 1415
procNo = 1158
procNo = 391
procNo = 646
procNo = 1543
procNo = 775
procNo = 1031
procNo = 1799
procNo = 1671
procNo = 517
procNo = 1925
procNo = 134
procNo = 1287
procNo = 264
procNo = 903
procNo = 1416
procNo = 1159
procNo = 392
procNo = 647
procNo = 1544
procNo = 776
procNo = 1032
procNo = 1800
procNo = 1672
procNo = 518
procNo = 1926
procNo = 135
procNo = 1288
procNo = 265
procNo = 904
procNo = 1417
procNo = 1160
procNo = 393
procNo = 648
procNo = 1545
procNo = 777
procNo = 1033
procNo = 1801
procNo = 1673
procNo = 519
procNo = 1927
procNo = 136
procNo = 1289
procNo = 266
procNo = 905
procNo = 1418
procNo = 1161
procNo = 394
procNo = 649
procNo = 1546
procNo = 778
procNo = 1034
procNo = 1802
procNo = 1674
procNo = 520
procNo = 1928
procNo = 137
procNo = 1290
procNo = 267
procNo = 906
procNo = 1419
procNo = 1162
procNo = 395
procNo = 650
procNo = 1547
procNo = 779
procNo = 1035
procNo = 1803
procNo = 1675
procNo = 521
procNo = 1929
procNo = 138
procNo = 1291
procNo = 268
procNo = 907
procNo = 1420
procNo = 1163
procNo = 396
procNo = 651
procNo = 1548
procNo = 780
procNo = 1036
procNo = 1804
procNo = 1676
procNo = 522
procNo = 1930
procNo = 139
procNo = 1292
procNo = 269
procNo = 908
procNo = 1421
procNo = 1164
procNo = 397
procNo = 652
procNo = 1549
procNo = 781
procNo = 1037
procNo = 1805
procNo = 1677
procNo = 523
procNo = 1931
procNo = 140
procNo = 1293
procNo = 270
procNo = 909
procNo = 1422
procNo = 1165
procNo = 398
procNo = 653
procNo = 1550
procNo = 782
procNo = 1038
procNo = 1806
procNo = 1678
procNo = 524
procNo = 1932
procNo = 141
procNo = 1294
procNo = 271
procNo = 910
procNo = 1423
procNo = 1166
procNo = 399
procNo = 654
procNo = 1551
procNo = 783
procNo = 1039
procNo = 1807
procNo = 1679
procNo = 525
procNo = 1933
procNo = 142
procNo = 1295
procNo = 272
procNo = 911
procNo = 1424
procNo = 1167
procNo = 400
procNo = 655
procNo = 1552
procNo = 784
procNo = 1040
procNo = 1808
procNo = 1680
procNo = 526
procNo = 1934
procNo = 143
procNo = 1296
procNo = 273
procNo = 912
procNo = 1425
procNo = 1168
procNo = 401
procNo = 656
procNo = 1553
procNo = 785
procNo = 1041
procNo = 1809
procNo = 1681
procNo = 527
procNo = 1935
procNo = 144
procNo = 1297
procNo = 274
procNo = 913
procNo = 1426
procNo = 1169
procNo = 402
procNo = 657
procNo = 1554
procNo = 786
procNo = 1042
procNo = 1810
procNo = 1682
procNo = 528
procNo = 1936
procNo = 145
procNo = 1298
procNo = 275
procNo = 914
procNo = 1427
procNo = 1170
procNo = 403
procNo = 658
procNo = 1555
procNo = 787
procNo = 1043
procNo = 1811
procNo = 1683
procNo = 529
procNo = 1937
procNo = 146
procNo = 1299
procNo = 276
procNo = 915
procNo = 1428
procNo = 1171
procNo = 404
procNo = 659
procNo = 1556
procNo = 788
procNo = 1044
procNo = 1812
procNo = 1684
procNo = 530
procNo = 1938
procNo = 147
procNo = 1300
procNo = 277
procNo = 916
procNo = 1429
procNo = 1172
procNo = 405
procNo = 660
procNo = 1557
procNo = 789
procNo = 1045
procNo = 1813
procNo = 1685
procNo = 531
procNo = 1939
procNo = 148
Courant Number mean: 2.06605644347511e-11 max: 2.085039370078742e-05
procNo = 1301
procNo = 278
procNo = 917
procNo = 1430
procNo = 1173
procNo = 406
procNo = 661
procNo = 1558
procNo = 790
procNo = 1046
procNo = 1814
procNo = 1686
procNo = 532
procNo = 1940
procNo = 149
procNo = 1302
procNo = 279
procNo = 918
procNo = 1431
procNo = 1174
procNo = 407
procNo = 662
procNo = 1559
procNo = 791
procNo = 1047
procNo = 1815
procNo = 1687
procNo = 533
procNo = 1941
procNo = 150
procNo = 1303
procNo = 280
procNo = 919
procNo = 1432
procNo = 1175
procNo = 408
procNo = 663
procNo = 1560
procNo = 792
procNo = 1048
procNo = 1816
procNo = 1688
procNo = 534
procNo = 1942
procNo = 151
procNo = 1304
procNo = 281
procNo = 920
procNo = 1433
procNo = 1176
procNo = 409
procNo = 664
procNo = 1561
procNo = 793
procNo = 1049
procNo = 1817
procNo = 1689
procNo = 535
procNo = 1943
procNo = 152
procNo = 1305
procNo = 282
procNo = 921
procNo = 1434
procNo = 1177
procNo = 410
procNo = 665
procNo = 1562
procNo = 794
procNo = 1050
procNo = 1818
procNo = 1690
procNo = 536
procNo = 1944
procNo = 153
procNo = 1306
procNo = 283
procNo = 922
procNo = 1435
procNo = 1178
procNo = 411
procNo = 666
procNo = 1563
procNo = 795
procNo = 1051
procNo = 1819
procNo = 1691
procNo = 537
procNo = 1945
procNo = 154
procNo = 1307
procNo = 284
procNo = 923
procNo = 1436
procNo = 1179
procNo = 412
procNo = 667
procNo = 1564
procNo = 796
procNo = 1052
procNo = 1820
procNo = 1692
procNo = 538
procNo = 1946
procNo = 155
procNo = 1308
procNo = 285
procNo = 924
procNo = 1437
procNo = 1180
procNo = 413
procNo = 668
procNo = 1565
procNo = 797
procNo = 1053
procNo = 1821
procNo = 1693
procNo = 539
procNo = 1947
procNo = 156

Starting time loop

procNo = 1309
procNo = 286
procNo = 925
procNo = 1438
procNo = 1181
procNo = 414
procNo = 669
procNo = 1566
procNo = 798
procNo = 1054
procNo = 1822
procNo = 1694
procNo = 540
procNo = 1948
procNo = 157
procNo = 1310
procNo = 287
procNo = 926
procNo = 1439
procNo = 1182
procNo = 415
procNo = 670
procNo = 1567
procNo = 799
procNo = 1055
procNo = 1823
procNo = 1695
procNo = 541
procNo = 1949
procNo = 158
procNo = 1311
procNo = 288
procNo = 927
procNo = 1440
procNo = 1183
procNo = 416
procNo = 671
procNo = 1568
procNo = 800
procNo = 1056
procNo = 1824
procNo = 1696
procNo = 542
procNo = 1950
procNo = 159
procNo = 1312
procNo = 289
procNo = 928
procNo = 1441
procNo = 1184
procNo = 417
procNo = 672
procNo = 1569
procNo = 801
procNo = 1057
procNo = 1825
procNo = 1697
procNo = 543
procNo = 1951
procNo = 160
procNo = 1313
procNo = 290
procNo = 929
procNo = 1442
procNo = 1185
procNo = 418
procNo = 673
procNo = 1570
procNo = 802
procNo = 1058
procNo = 1826
procNo = 1698
procNo = 544
procNo = 1952
procNo = 161
Courant Number mean: 2.06605644347511e-11 max: 2.085039370078742e-05
deltaT = 1.2e-09
Time = 1.2e-09

PIMPLE: iteration 1
procNo = 1314
procNo = 291
procNo = 930
procNo = 1443
procNo = 1186
procNo = 419
procNo = 674
procNo = 1571
procNo = 803
procNo = 1059
procNo = 1827
procNo = 1699
procNo = 545
procNo = 1953
procNo = 162
procNo = 1315
procNo = 292
procNo = 931
procNo = 1444
procNo = 1187
procNo = 420
procNo = 675
procNo = 1572
procNo = 804
procNo = 1060
procNo = 1828
procNo = 1700
procNo = 546
procNo = 1954
procNo = 163
procNo = 1316
procNo = 293
procNo = 932
procNo = 1445
procNo = 1188
procNo = 421
procNo = 676
procNo = 1573
procNo = 805
procNo = 1061
procNo = 1829
procNo = 1701
procNo = 547
procNo = 1955
procNo = 164
diagonal:  Solving for rho, Initial residual = 0, Final residual = 0, No Iterations 0
procNo = 1317
procNo = 294
procNo = 933
procNo = 1446
procNo = 1189
procNo = 422
procNo = 677
procNo = 1574
procNo = 806
procNo = 1062
procNo = 1830
procNo = 1702
procNo = 548
procNo = 1956
procNo = 165
procNo = 1318
procNo = 295
procNo = 934
procNo = 1447
procNo = 1190
procNo = 423
procNo = 678
procNo = 1575
procNo = 807
procNo = 1063
procNo = 1831
procNo = 1703
procNo = 549
procNo = 1957
procNo = 166
procNo = 1319
procNo = 296
procNo = 935
procNo = 1448
procNo = 1191
procNo = 424
procNo = 679
procNo = 1576
procNo = 808
procNo = 1064
procNo = 1832
procNo = 1704
procNo = 550
procNo = 1958
procNo = 167
procNo = 1320
procNo = 297
procNo = 936
procNo = 1449
procNo = 1192
procNo = 425
procNo = 680
procNo = 1577
procNo = 809
procNo = 1065
procNo = 1833
procNo = 1705
procNo = 551
procNo = 1959
procNo = 168
procNo = 1321
procNo = 298
procNo = 937
procNo = 1450
procNo = 1193
procNo = 426
procNo = 681
procNo = 1578
procNo = 810
procNo = 1066
procNo = 1834
procNo = 1706
procNo = 552
procNo = 1960
procNo = 169
procNo = 1322
procNo = 299
procNo = 938
procNo = 1451
procNo = 1194
procNo = 427
procNo = 682
procNo = 1579
procNo = 811
procNo = 1067
procNo = 1835
procNo = 1707
procNo = 553
procNo = 1961
procNo = 170
procNo = 1323
procNo = 300
procNo = 939
procNo = 1452
procNo = 1195
procNo = 428
procNo = 683
procNo = 1580
procNo = 812
procNo = 1068
procNo = 1836
procNo = 1708
procNo = 554
procNo = 1962
procNo = 171
procNo = 1324
procNo = 301
procNo = 940
procNo = 1453
procNo = 1196
procNo = 429
procNo = 684
procNo = 1581
procNo = 813
procNo = 1069
procNo = 1837
procNo = 1709
procNo = 555
procNo = 1963
procNo = 172
procNo = 1325
procNo = 302
procNo = 941
procNo = 1454
procNo = 1197
procNo = 430
procNo = 685
procNo = 1582
procNo = 814
procNo = 1070
procNo = 1838
procNo = 1710
procNo = 556
procNo = 1964
procNo = 173
procNo = 1326
procNo = 303
procNo = 942
procNo = 1455
procNo = 1198
procNo = 431
procNo = 686
procNo = 1583
procNo = 815
procNo = 1071
procNo = 1839
procNo = 1711
procNo = 557
procNo = 1965
procNo = 174
procNo = 1327
procNo = 304
procNo = 943
procNo = 1456
procNo = 1199
procNo = 432
procNo = 687
procNo = 1584
procNo = 816
procNo = 1072
procNo = 1840
procNo = 1712
procNo = 558
procNo = 1966
procNo = 175
procNo = 1328
procNo = 305
procNo = 944
procNo = 1457
procNo = 1200
procNo = 433
procNo = 688
procNo = 1585
procNo = 817
procNo = 1073
procNo = 1841
procNo = 1713
procNo = 559
procNo = 1967
procNo = 176
procNo = 1329
procNo = 306
procNo = 945
procNo = 1458
procNo = 1201
procNo = 434
procNo = 689
procNo = 1586
procNo = 818
procNo = 1074
procNo = 1842
procNo = 1714
procNo = 560
procNo = 1968
procNo = 177
procNo = 1330
procNo = 307
procNo = 946
procNo = 1459
procNo = 1202
procNo = 435
procNo = 690
procNo = 1587
procNo = 819
procNo = 1075
procNo = 1843
procNo = 1715
procNo = 561
procNo = 1969
procNo = 178
procNo = 1331
procNo = 308
procNo = 947
procNo = 1460
procNo = 1203
procNo = 436
procNo = 691
procNo = 1588
procNo = 820
procNo = 1076
procNo = 1844
procNo = 1716
procNo = 562
procNo = 1970
procNo = 179
procNo = 1332
procNo = 309
procNo = 948
procNo = 1461
procNo = 1204
procNo = 437
procNo = 692
procNo = 1589
procNo = 821
procNo = 1077
procNo = 1845
procNo = 1717
procNo = 563
procNo = 1971
procNo = 180
procNo = 1333
procNo = 310
procNo = 949
procNo = 1462
procNo = 1205
procNo = 438
procNo = 693
procNo = 1590
procNo = 822
procNo = 1078
procNo = 1846
procNo = 1718
procNo = 564
procNo = 1972
procNo = 181
procNo = 1334
procNo = 311
procNo = 950
procNo = 1463
procNo = 1206
procNo = 439
procNo = 694
procNo = 1591
procNo = 823
procNo = 1079
procNo = 1847
procNo = 1719
procNo = 565
procNo = 1973
procNo = 182
procNo = 1335
procNo = 312
procNo = 951
procNo = 1464
procNo = 1207
procNo = 440
procNo = 695
procNo = 1592
procNo = 824
procNo = 1080
procNo = 1848
procNo = 1720
procNo = 566
procNo = 1974
procNo = 183
procNo = 1336
procNo = 313
procNo = 952
procNo = 1465
procNo = 1208
procNo = 441
procNo = 696
procNo = 1593
procNo = 825
procNo = 1081
procNo = 1849
procNo = 1721
procNo = 567
procNo = 1975
procNo = 184
procNo = 1337
procNo = 314
procNo = 953
procNo = 1466
procNo = 1209
procNo = 442
procNo = 697
procNo = 1594
procNo = 826
procNo = 1082
procNo = 1850
procNo = 1722
procNo = 568
procNo = 1976
procNo = 185
procNo = 1338
procNo = 315
procNo = 954
procNo = 1467
procNo = 1210
procNo = 443
procNo = 698
procNo = 1595
procNo = 827
procNo = 1083
procNo = 1851
procNo = 1723
procNo = 569
procNo = 1977
procNo = 186
procNo = 1339
procNo = 316
procNo = 955
procNo = 1468
procNo = 1211
procNo = 444
procNo = 699
procNo = 1596
procNo = 828
procNo = 1084
procNo = 1852
procNo = 1724
procNo = 570
procNo = 1978
procNo = 187
procNo = 1340
procNo = 317
procNo = 956
procNo = 1469
procNo = 1212
procNo = 445
procNo = 700
procNo = 1597
procNo = 829
procNo = 1085
procNo = 1853
procNo = 1725
procNo = 571
procNo = 1979
procNo = 188
procNo = 1341
procNo = 318
procNo = 957
procNo = 1470
procNo = 1213
procNo = 446
procNo = 701
procNo = 1598
procNo = 830
procNo = 1086
procNo = 1854
procNo = 1726
procNo = 572
procNo = 1980
procNo = 189
procNo = 1342
procNo = 319
procNo = 958
procNo = 1471
procNo = 1214
procNo = 447
procNo = 702
procNo = 1599
procNo = 831
procNo = 1087
procNo = 1855
procNo = 1727
procNo = 573
procNo = 1981
procNo = 190
procNo = 1343
procNo = 320
procNo = 959
procNo = 1472
procNo = 1215
procNo = 448
procNo = 703
procNo = 1600
procNo = 832
procNo = 1088
procNo = 1856
procNo = 1728
procNo = 574
procNo = 1982
procNo = 191
procNo = 1344
procNo = 321
procNo = 960
procNo = 1473
procNo = 1216
procNo = 449
procNo = 704
procNo = 1601
procNo = 833
procNo = 1089
procNo = 1857
procNo = 1729
procNo = 575
procNo = 1983
procNo = 192
procNo = 1345
procNo = 322
procNo = 961
procNo = 1474
procNo = 1217
procNo = 450
procNo = 705
procNo = 1602
procNo = 834
procNo = 1090
procNo = 1858
procNo = 1730
procNo = 576
procNo = 1984
procNo = 193
procNo = 1346
procNo = 323
procNo = 962
procNo = 1475
procNo = 1218
procNo = 451
procNo = 706
procNo = 1603
procNo = 835
procNo = 1091
procNo = 1859
procNo = 1731
procNo = 577
procNo = 1985
procNo = 194
procNo = 1347
procNo = 324
procNo = 963
procNo = 1476
procNo = 1219
procNo = 452
procNo = 707
procNo = 1604
procNo = 836
procNo = 1092
procNo = 1860
procNo = 1732
procNo = 578
procNo = 1986
procNo = 195
procNo = 1348
procNo = 325
procNo = 964
procNo = 1477
procNo = 1220
procNo = 453
procNo = 708
procNo = 1605
procNo = 837
procNo = 1093
procNo = 1861
procNo = 1733
procNo = 579
procNo = 1987
procNo = 196
procNo = 1349
procNo = 326
procNo = 965
procNo = 1478
procNo = 1221
procNo = 454
procNo = 709
procNo = 1606
procNo = 838
procNo = 1094
procNo = 1862
procNo = 1734
procNo = 580
procNo = 1988
procNo = 197
procNo = 1350
procNo = 327
procNo = 966
procNo = 1479
procNo = 1222
procNo = 455
procNo = 710
procNo = 1607
procNo = 839
procNo = 1095
procNo = 1863
procNo = 1735
procNo = 581
procNo = 1989
procNo = 198
procNo = 1351
procNo = 328
procNo = 967
procNo = 1480
procNo = 1223
procNo = 456
procNo = 711
procNo = 1608
procNo = 840
procNo = 1096
procNo = 1864
procNo = 1736
procNo = 582
procNo = 1990
procNo = 199
procNo = 1352
procNo = 329
procNo = 968
procNo = 1481
procNo = 1224
procNo = 457
procNo = 712
procNo = 1609
procNo = 841
procNo = 1097
procNo = 1865
procNo = 1737
procNo = 583
procNo = 1991
procNo = 200
procNo = 1353
procNo = 330
procNo = 969
procNo = 1482
procNo = 1225
procNo = 458
procNo = 713
procNo = 1610
procNo = 842
procNo = 1098
procNo = 1866
procNo = 1738
procNo = 584
procNo = 1992
procNo = 201
procNo = 1354
procNo = 331
procNo = 970
procNo = 1483
procNo = 1226
procNo = 459
procNo = 714
procNo = 1611
procNo = 843
procNo = 1099
procNo = 1867
procNo = 1739
procNo = 585
procNo = 1993
procNo = 202
procNo = 1355
procNo = 332
procNo = 971
procNo = 1484
procNo = 1227
procNo = 460
procNo = 715
procNo = 1612
procNo = 844
procNo = 1100
procNo = 1868
procNo = 1740
procNo = 586
procNo = 1994
procNo = 203
procNo = 1356
procNo = 333
procNo = 972
procNo = 1485
procNo = 1228
procNo = 461
procNo = 716
procNo = 1613
procNo = 845
procNo = 1101
procNo = 1869
procNo = 1741
procNo = 587
procNo = 1995
procNo = 204
procNo = 1357
procNo = 334
procNo = 973
procNo = 1486
procNo = 1229
procNo = 462
procNo = 717
procNo = 1614
procNo = 846
procNo = 1102
procNo = 1870
procNo = 1742
procNo = 588
procNo = 1996
procNo = 205
procNo = 1358
procNo = 335
procNo = 974
procNo = 1487
procNo = 1230
procNo = 463
procNo = 718
procNo = 1615
procNo = 847
procNo = 1103
procNo = 1871
procNo = 1743
procNo = 589
procNo = 1997
procNo = 206
procNo = 1359
procNo = 336
procNo = 975
procNo = 1488
procNo = 1231
procNo = 464
procNo = 719
procNo = 1616
procNo = 848
procNo = 1104
procNo = 1872
procNo = 1744
procNo = 590
procNo = 1998
procNo = 207
procNo = 1360
procNo = 337
procNo = 976
procNo = 1489
procNo = 1232
procNo = 465
procNo = 720
procNo = 1617
procNo = 849
procNo = 1105
procNo = 1873
procNo = 1745
procNo = 591
procNo = 1999
procNo = 208
procNo = 1361
procNo = 338
procNo = 977
procNo = 1490
procNo = 1233
procNo = 466
procNo = 721
procNo = 1618
procNo = 850
procNo = 1106
procNo = 1874
procNo = 1746
procNo = 592
procNo = 2000
procNo = 209
procNo = 1362
procNo = 339
procNo = 978
procNo = 1491
procNo = 1234
procNo = 467
procNo = 722
procNo = 1619
procNo = 851
procNo = 1107
procNo = 1875
procNo = 1747
procNo = 593
procNo = 2001
procNo = 210
procNo = 1363
procNo = 340
procNo = 979
procNo = 1492
procNo = 1235
procNo = 468
procNo = 723
procNo = 1620
procNo = 852
procNo = 1108
procNo = 1876
procNo = 1748
procNo = 594
procNo = 2002
procNo = 211
procNo = 1364
procNo = 341
procNo = 980
procNo = 1493
procNo = 1236
procNo = 469
procNo = 724
procNo = 1621
procNo = 853
procNo = 1109
procNo = 1877
procNo = 1749
procNo = 595
procNo = 2003
procNo = 212
procNo = 1365
procNo = 342
procNo = 981
procNo = 1494
procNo = 1237
procNo = 470
procNo = 725
procNo = 1622
procNo = 854
procNo = 1110
procNo = 1878
procNo = 1750
procNo = 596
procNo = 2004
procNo = 213
procNo = 1366
procNo = 343
procNo = 982
procNo = 1495
procNo = 1238
procNo = 471
procNo = 726
procNo = 1623
procNo = 855
procNo = 1111
procNo = 1879
procNo = 1751
procNo = 597
procNo = 2005
procNo = 214
procNo = 1367
procNo = 344
procNo = 983
procNo = 1496
procNo = 1239
procNo = 472
procNo = 727
procNo = 1624
procNo = 856
procNo = 1112
procNo = 1880
procNo = 1752
procNo = 598
procNo = 2006
procNo = 215
procNo = 1368
procNo = 345
procNo = 984
procNo = 1497
procNo = 1240
procNo = 473
procNo = 728
procNo = 1625
procNo = 857
procNo = 1113
procNo = 1881
procNo = 1753
procNo = 599
procNo = 2007
procNo = 216
procNo = 1369
procNo = 346
procNo = 985
procNo = 1498
procNo = 1241
procNo = 474
procNo = 729
procNo = 1626
procNo = 858
procNo = 1114
procNo = 1882
procNo = 1754
procNo = 600
procNo = 2008
procNo = 217
procNo = 1370
procNo = 347
procNo = 986
procNo = 1499
procNo = 1242
procNo = 475
procNo = 730
procNo = 1627
procNo = 859
procNo = 1115
procNo = 1883
procNo = 1755
procNo = 601
procNo = 2009
procNo = 218
procNo = 1371
procNo = 348
procNo = 987
procNo = 1500
procNo = 1243
procNo = 476
procNo = 731
procNo = 1628
procNo = 860
procNo = 1116
procNo = 1884
procNo = 1756
procNo = 602
procNo = 2010
procNo = 219
procNo = 1372
procNo = 349
procNo = 988
procNo = 1501
procNo = 1244
procNo = 477
procNo = 732
procNo = 1629
procNo = 861
procNo = 1117
procNo = 1885
procNo = 1757
procNo = 603
procNo = 2011
procNo = 220
procNo = 1373
procNo = 350
procNo = 989
procNo = 1502
procNo = 1245
procNo = 478
procNo = 733
procNo = 1630
procNo = 862
procNo = 1118
procNo = 1886
procNo = 1758
procNo = 604
procNo = 2012
procNo = 221
procNo = 1374
procNo = 351
procNo = 990
procNo = 1503
procNo = 1246
procNo = 479
procNo = 734
procNo = 1631
procNo = 863
procNo = 1119
procNo = 1887
procNo = 1759
procNo = 605
procNo = 2013
procNo = 222
procNo = 1375
procNo = 352
procNo = 991
procNo = 1504
procNo = 1247
procNo = 480
procNo = 735
procNo = 1632
procNo = 864
procNo = 1120
procNo = 1888
procNo = 1760
procNo = 606
procNo = 2014
procNo = 223
procNo = 1376
procNo = 353
procNo = 992
procNo = 1505
procNo = 1248
procNo = 481
procNo = 736
procNo = 1633
procNo = 865
procNo = 1121
procNo = 1889
procNo = 1761
procNo = 607
procNo = 2015
procNo = 224
procNo = 1377
procNo = 354
procNo = 993
procNo = 1506
procNo = 1249
procNo = 482
procNo = 737
procNo = 1634
procNo = 866
procNo = 1122
procNo = 1890
procNo = 1762
procNo = 608
procNo = 2016
procNo = 225
procNo = 1378
procNo = 355
procNo = 994
procNo = 1507
procNo = 1250
procNo = 483
procNo = 738
procNo = 1635
procNo = 867
procNo = 1123
procNo = 1891
procNo = 1763
procNo = 609
procNo = 2017
procNo = 226
procNo = 1379
procNo = 356
procNo = 995
procNo = 1508
procNo = 1251
procNo = 484
procNo = 739
procNo = 1636
procNo = 868
procNo = 1124
procNo = 1892
procNo = 1764
procNo = 610
procNo = 2018
procNo = 227
procNo = 1380
procNo = 357
procNo = 996
procNo = 1509
procNo = 1252
procNo = 485
procNo = 740
procNo = 1637
procNo = 869
procNo = 1125
procNo = 1893
procNo = 1765
procNo = 611
procNo = 2019
procNo = 228
procNo = 1381
procNo = 358
procNo = 997
procNo = 1510
procNo = 1253
procNo = 486
procNo = 741
procNo = 1638
procNo = 870
procNo = 1126
procNo = 1894
procNo = 1766
procNo = 612
procNo = 2020
procNo = 229
procNo = 1382
procNo = 359
procNo = 998
procNo = 1511
procNo = 1254
procNo = 487
procNo = 742
procNo = 1639
procNo = 871
procNo = 1127
procNo = 1895
procNo = 1767
procNo = 613
procNo = 2021
procNo = 230
procNo = 1383
procNo = 360
procNo = 999
procNo = 1512
procNo = 1255
procNo = 488
procNo = 743
procNo = 1640
procNo = 872
procNo = 1128
procNo = 1896
procNo = 1768
procNo = 614
procNo = 2022
procNo = 231
procNo = 1384
procNo = 361
procNo = 1000
procNo = 1513
procNo = 1256
procNo = 489
procNo = 744
procNo = 1641
procNo = 873
procNo = 1129
procNo = 1897
procNo = 1769
procNo = 615
procNo = 2023
procNo = 232
procNo = 1385
procNo = 362
procNo = 1001
procNo = 1514
procNo = 1257
procNo = 490
procNo = 745
procNo = 1642
procNo = 874
procNo = 1130
procNo = 1898
procNo = 1770
procNo = 616
procNo = 2024
procNo = 233
procNo = 1386
procNo = 363
procNo = 1002
procNo = 1515
procNo = 1258
procNo = 491
procNo = 746
procNo = 1643
procNo = 875
procNo = 1131
procNo = 1899
procNo = 1771
procNo = 617
procNo = 2025
procNo = 234
procNo = 1387
procNo = 364
procNo = 1003
procNo = 1516
procNo = 1259
procNo = 492
procNo = 747
procNo = 1644
procNo = 876
procNo = 1132
procNo = 1900
procNo = 1772
procNo = 618
procNo = 2026
procNo = 235
procNo = 1388
procNo = 365
procNo = 1004
procNo = 1517
procNo = 1260
procNo = 493
procNo = 748
procNo = 1645
procNo = 877
procNo = 1133
procNo = 1901
procNo = 1773
procNo = 619
procNo = 2027
procNo = 236
procNo = 1389
procNo = 366
procNo = 1005
procNo = 1518
procNo = 1261
procNo = 494
procNo = 749
procNo = 1646
procNo = 878
procNo = 1134
procNo = 1902
procNo = 1774
procNo = 620
procNo = 2028
procNo = 237
procNo = 1390
procNo = 367
procNo = 1006
procNo = 1519
procNo = 1262
procNo = 495
procNo = 750
procNo = 1647
procNo = 879
procNo = 1135
procNo = 1903
procNo = 1775
procNo = 621
procNo = 2029
procNo = 238
procNo = 1391
procNo = 368
procNo = 1007
procNo = 1520
procNo = 1263
procNo = 496
procNo = 751
procNo = 1648
procNo = 880
procNo = 1136
procNo = 1904
procNo = 1776
procNo = 622
procNo = 2030
procNo = 239
procNo = 1392
procNo = 369
procNo = 1008
procNo = 1521
procNo = 1264
procNo = 497
procNo = 752
procNo = 1649
procNo = 881
procNo = 1137
procNo = 1905
procNo = 1777
procNo = 623
procNo = 2031
procNo = 240
procNo = 1393
procNo = 370
procNo = 1009
procNo = 1522
procNo = 1265
procNo = 498
procNo = 753
procNo = 1650
procNo = 882
procNo = 1138
procNo = 1906
procNo = 1778
procNo = 624
procNo = 2032
procNo = 241
procNo = 1394
procNo = 371
procNo = 1010
procNo = 1523
procNo = 1266
procNo = 499
procNo = 754
procNo = 1651
procNo = 883
procNo = 1139
procNo = 1907
procNo = 1779
procNo = 625
procNo = 2033
procNo = 242
procNo = 1395
procNo = 372
procNo = 1011
procNo = 1524
procNo = 1267
procNo = 500
procNo = 755
procNo = 1652
procNo = 884
procNo = 1140
procNo = 1908
procNo = 1780
procNo = 626
procNo = 2034
procNo = 243
procNo = 1396
procNo = 373
procNo = 1012
procNo = 1525
procNo = 1268
procNo = 501
procNo = 756
procNo = 1653
procNo = 885
procNo = 1141
procNo = 1909
procNo = 1781
procNo = 627
procNo = 2035
procNo = 244
procNo = 1397
procNo = 374
procNo = 1013
procNo = 1526
procNo = 1269
procNo = 502
procNo = 757
procNo = 1654
procNo = 886
procNo = 1142
procNo = 1910
procNo = 1782
procNo = 628
procNo = 2036
procNo = 245
procNo = 1398
procNo = 375
procNo = 1014
procNo = 1527
procNo = 1270
procNo = 503
procNo = 758
procNo = 1655
procNo = 887
procNo = 1143
procNo = 1911
procNo = 1783
procNo = 629
procNo = 2037
procNo = 246
procNo = 1399
procNo = 376
procNo = 1015
procNo = 1528
procNo = 1271
procNo = 504
procNo = 759
procNo = 1656
procNo = 888
procNo = 1144
procNo = 1912
procNo = 1784
procNo = 630
procNo = 2038
procNo = 247
procNo = 1400
procNo = 377
procNo = 1016
procNo = 1529
procNo = 1272
procNo = 505
procNo = 760
procNo = 1657
procNo = 889
procNo = 1145
procNo = 1913
procNo = 1785
procNo = 631
procNo = 2039
procNo = 248
procNo = 1401
procNo = 378
procNo = 1017
procNo = 1530
procNo = 1273
procNo = 506
procNo = 761
procNo = 1658
procNo = 890
procNo = 1146
procNo = 1914
procNo = 1786
procNo = 632
procNo = 2040
procNo = 249
procNo = 1402
procNo = 379
procNo = 1018
procNo = 1531
procNo = 1274
procNo = 507
procNo = 762
procNo = 1659
procNo = 891
procNo = 1147
procNo = 1915
procNo = 1787
procNo = 633
procNo = 2041
procNo = 250
procNo = 1403
procNo = 380
procNo = 1019
procNo = 1532
procNo = 1275
procNo = 508
procNo = 763
procNo = 1660
procNo = 892
procNo = 1148
procNo = 1916
procNo = 1788
procNo = 634
procNo = 2042
procNo = 251
procNo = 1404
procNo = 381
procNo = 1020
procNo = 1533
procNo = 1276
procNo = 509
procNo = 764
procNo = 1661
procNo = 893
procNo = 1149
procNo = 1917
procNo = 1789
procNo = 635
procNo = 2043
procNo = 252
procNo = 1405
procNo = 382
procNo = 1021
procNo = 1534
procNo = 1277
procNo = 510
procNo = 765
procNo = 1662
procNo = 894
procNo = 1150
procNo = 1918
procNo = 1790
procNo = 636
procNo = 2044
procNo = 253
procNo = 1406
procNo = 383
procNo = 1022
procNo = 1535
procNo = 1278
procNo = 511
procNo = 766
procNo = 1663
procNo = 895
procNo = 1151
procNo = 1919
procNo = 1791
procNo = 637
procNo = 2045
procNo = 254
procNo = 1407
procNo = 1023
procNo = 1279
procNo = 767
procNo = 638
procNo = 2046
procNo = 255
procNo = 639
procNo = 2047
DILUPBiCG:  Solving for Ux, Initial residual = 1, Final residual = 1.533867025646962e-20, No Iterations 2
DILUPBiCG:  Solving for Uy, Initial residual = 1, Final residual = 2.489827485164408e-20, No Iterations 2
DILUPBiCG:  Solving for Uz, Initial residual = 1, Final residual = 3.147611893528598e-20, No Iterations 2
DILUPBiCG:  Solving for e, Initial residual = 0.999998013821484, Final residual = 1.265999416088949e-19, No Iterations 2
DILUPBiCG:  Solving for p, Initial residual = 0.9999992583952394, Final residual = 9.86290863881435e-10, No Iterations 1
diagonal:  Solving for rho, Initial residual = 0, Final residual = 0, No Iterations 0
time step continuity errors : sum local = 2.486066341986534e-16, global = -2.482015435634767e-16, cumulative = -2.482015435634767e-16
DILUPBiCG:  Solving for p, Initial residual = 2.348875672630704e-07, Final residual = 4.243263372289679e-16, No Iterations 1
diagonal:  Solving for rho, Initial residual = 0, Final residual = 0, No Iterations 0
time step continuity errors : sum local = 2.690613919868122e-16, global = -2.682842840012643e-16, cumulative = -5.16485827564741e-16
DILUPBiCG:  Solving for k, Initial residual = 0.9999999999999837, Final residual = 3.148793823085359e-20, No Iterations 2
ExecutionTime = 20.98 s  ClockTime = 39 s

ORIG_COMP_STEP = 0.453691497
ORIG_IO_STEP = 8.980708232000001
Courant Number mean: 2.479280160767238e-11 max: 2.501990921293872e-05
deltaT = 1.44e-09
Time = 2.64e-09

PIMPLE: iteration 1
diagonal:  Solving for rho, Initial residual = 0, Final residual = 0, No Iterations 0
DILUPBiCG:  Solving for Ux, Initial residual = 0.3749195243102584, Final residual = 3.487827924635674e-21, No Iterations 2
DILUPBiCG:  Solving for Uy, Initial residual = 0.3749195242908739, Final residual = 5.669122924959239e-21, No Iterations 2
DILUPBiCG:  Solving for Uz, Initial residual = 0.2307598235402429, Final residual = 4.41718660339377e-21, No Iterations 2
DILUPBiCG:  Solving for e, Initial residual = 0.230752468057804, Final residual = 1.772300272801398e-20, No Iterations 2
DILUPBiCG:  Solving for p, Initial residual = 0.2307596009546096, Final residual = 1.372279759199203e-10, No Iterations 1
diagonal:  Solving for rho, Initial residual = 0, Final residual = 0, No Iterations 0
time step continuity errors : sum local = 5.44516730754872e-16, global = -5.444198419022955e-16, cumulative = -1.060905669467037e-15
DILUPBiCG:  Solving for p, Initial residual = 1.611452941315497e-07, Final residual = 1.979519750122262e-14, No Iterations 1
diagonal:  Solving for rho, Initial residual = 0, Final residual = 0, No Iterations 0
time step continuity errors : sum local = 4.823388352605874e-16, global = -4.823324923586143e-16, cumulative = -1.543238161825651e-15
DILUPBiCG:  Solving for k, Initial residual = 0.7612498613666973, Final residual = 1.459176252158315e-20, No Iterations 2
ExecutionTime = 22.08 s  ClockTime = 49 s

ORIG_COMP_STEP = 1.045604926999999
ORIG_IO_STEP = 9.493069602
Courant Number mean: 2.975154167269052e-11 max: 3.002308059560314e-05
deltaT = 1.728e-09
Time = 4.368e-09

PIMPLE: iteration 1
diagonal:  Solving for rho, Initial residual = 0, Final residual = 0, No Iterations 0
DILUPBiCG:  Solving for Ux, Initial residual = 0.3231076586573216, Final residual = 4.403460922071088e-21, No Iterations 2
DILUPBiCG:  Solving for Uy, Initial residual = 0.3231076596645083, Final residual = 7.185902577254534e-21, No Iterations 2
DILUPBiCG:  Solving for Uz, Initial residual = 0.1406142643038296, Final residual = 3.973041582493245e-21, No Iterations 2
DILUPBiCG:  Solving for e, Initial residual = 0.1406074378224583, Final residual = 1.582891578509446e-20, No Iterations 2
DILUPBiCG:  Solving for p, Initial residual = 0.1406134913147798, Final residual = 1.204225010025308e-10, No Iterations 1
diagonal:  Solving for rho, Initial residual = 0, Final residual = 0, No Iterations 0
time step continuity errors : sum local = 6.604475050469282e-16, global = -6.603057766214106e-16, cumulative = -2.203543938447061e-15
DILUPBiCG:  Solving for p, Initial residual = 1.009253189341299e-07, Final residual = 9.758847977668544e-14, No Iterations 1
diagonal:  Solving for rho, Initial residual = 0, Final residual = 0, No Iterations 0
time step continuity errors : sum local = 6.463753611886809e-16, global = -6.463751796282367e-16, cumulative = -2.849919118075298e-15
DILUPBiCG:  Solving for k, Initial residual = 0.5223924252975533, Final residual = 1.480487213159943e-20, No Iterations 2
ExecutionTime = 23.44 s  ClockTime = 62 s

ORIG_COMP_STEP = 1.287814855000001
ORIG_IO_STEP = 8.909797485999999
Courant Number mean: 3.570211002152042e-11 max: 3.602653054273846e-05
deltaT = 2.0736e-09
Time = 6.4416e-09

PIMPLE: iteration 1
diagonal:  Solving for rho, Initial residual = 0, Final residual = 0, No Iterations 0
DILUPBiCG:  Solving for Ux, Initial residual = 0.2861774256744172, Final residual = 5.791590482736778e-21, No Iterations 2
DILUPBiCG:  Solving for Uy, Initial residual = 0.2861774267366833, Final residual = 9.517120658243653e-21, No Iterations 2
DILUPBiCG:  Solving for Uz, Initial residual = 0.1060778808377302, Final residual = 4.509744874495512e-21, No Iterations 2
DILUPBiCG:  Solving for e, Initial residual = 0.1060695878597337, Final residual = 1.774822784321724e-20, No Iterations 2
DILUPBiCG:  Solving for p, Initial residual = 0.106076558340648, Final residual = 1.308313299004478e-10, No Iterations 1
diagonal:  Solving for rho, Initial residual = 0, Final residual = 0, No Iterations 0
time step continuity errors : sum local = 3.553785830699754e-16, global = -3.527240873798408e-16, cumulative = -3.202643205455139e-15
DILUPBiCG:  Solving for p, Initial residual = 7.219542179327716e-08, Final residual = 1.760429419505058e-21, No Iterations 2
diagonal:  Solving for rho, Initial residual = 0, Final residual = 0, No Iterations 0
time step continuity errors : sum local = 3.856875193239673e-16, global = -3.851870684581226e-16, cumulative = -3.587830273913262e-15
DILUPBiCG:  Solving for k, Initial residual = 0.3755561812009318, Final residual = 1.606061533873864e-20, No Iterations 2
ExecutionTime = 24.85 s  ClockTime = 73 s

ORIG_COMP_STEP = 1.360484479
ORIG_IO_STEP = 8.688006385999998
Courant Number mean: 4.284290893286384e-11 max: 4.323015923841612e-05
deltaT = 2.48832e-09
Time = 8.92992e-09

PIMPLE: iteration 1
diagonal:  Solving for rho, Initial residual = 0, Final residual = 0, No Iterations 0
DILUPBiCG:  Solving for Ux, Initial residual = 0.2580115457997587, Final residual = 7.864632060599089e-21, No Iterations 2
DILUPBiCG:  Solving for Uy, Initial residual = 0.2580115465846211, Final residual = 1.305046150304339e-20, No Iterations 2
DILUPBiCG:  Solving for Uz, Initial residual = 0.08805270476357488, Final residual = 5.74397842053835e-21, No Iterations 2
DILUPBiCG:  Solving for e, Initial residual = 0.08804270678338844, Final residual = 2.222149312374461e-20, No Iterations 2
DILUPBiCG:  Solving for p, Initial residual = 0.08805068574683012, Final residual = 1.564054248221853e-10, No Iterations 1
diagonal:  Solving for rho, Initial residual = 0, Final residual = 0, No Iterations 0
time step continuity errors : sum local = 1.227719513494284e-16, global = -3.844116618301428e-17, cumulative = -3.626271440096276e-15
DILUPBiCG:  Solving for p, Initial residual = 4.069490191529866e-08, Final residual = 5.727846033214983e-14, No Iterations 1
diagonal:  Solving for rho, Initial residual = 0, Final residual = 0, No Iterations 0
time step continuity errors : sum local = 1.142152594541969e-16, global = -1.571829090725933e-17, cumulative = -3.641989731003535e-15
DILUPBiCG:  Solving for k, Initial residual = 0.2906875148648093, Final residual = 1.916164536549204e-20, No Iterations 2
ExecutionTime = 26.1 s  ClockTime = 83 s

ORIG_COMP_STEP = 1.200421017000004
ORIG_IO_STEP = 8.794105417000004
Courant Number mean: 5.14120380963966e-11 max: 5.187377896431862e-05
deltaT = 2.985983999999999e-09
Time = 1.19159e-08

PIMPLE: iteration 1
diagonal:  Solving for rho, Initial residual = 0, Final residual = 0, No Iterations 0
DILUPBiCG:  Solving for Ux, Initial residual = 0.2369026984066411, Final residual = 1.103888836504717e-20, No Iterations 2
DILUPBiCG:  Solving for Uy, Initial residual = 0.2369026990048252, Final residual = 1.854428388540191e-20, No Iterations 2
DILUPBiCG:  Solving for Uz, Initial residual = 0.07712850025560575, Final residual = 7.874827397868704e-21, No Iterations 2
DILUPBiCG:  Solving for e, Initial residual = 0.07711597879843, Final residual = 2.981849359013673e-20, No Iterations 2
DILUPBiCG:  Solving for p, Initial residual = 0.07712537940624913, Final residual = 1.973154065741006e-10, No Iterations 1
diagonal:  Solving for rho, Initial residual = 0, Final residual = 0, No Iterations 0
time step continuity errors : sum local = 3.65119669799649e-16, global = 3.638091665132708e-16, cumulative = -3.278180564490264e-15
DILUPBiCG:  Solving for p, Initial residual = 2.651282039204774e-08, Final residual = 4.467643368242361e-14, No Iterations 1
diagonal:  Solving for rho, Initial residual = 0, Final residual = 0, No Iterations 0
time step continuity errors : sum local = 3.775265031900073e-16, global = 3.723796394308438e-16, cumulative = -2.905800925059421e-15
DILUPBiCG:  Solving for k, Initial residual = 0.2385156420698251, Final residual = 2.477761156456346e-20, No Iterations 2
ExecutionTime = 27.76 s  ClockTime = 94 s

ORIG_COMP_STEP = 1.600115733000003
ORIG_IO_STEP = 7.817208232000006
Courant Number mean: 6.169524221642634e-11 max: 6.224506732903098e-05
deltaT = 3.583180799999999e-09
Time = 1.54991e-08

PIMPLE: iteration 1
diagonal:  Solving for rho, Initial residual = 0, Final residual = 0, No Iterations 0
DILUPBiCG:  Solving for Ux, Initial residual = 0.2210519066702047, Final residual = 1.599348350277624e-20, No Iterations 2
DILUPBiCG:  Solving for Uy, Initial residual = 0.2210519067494948, Final residual = 2.725600581328607e-20, No Iterations 2
DILUPBiCG:  Solving for Uz, Initial residual = 0.06989938345020369, Final residual = 1.1397254885783e-20, No Iterations 2
DILUPBiCG:  Solving for e, Initial residual = 0.06988418908614144, Final residual = 4.208924874328223e-20, No Iterations 2
DILUPBiCG:  Solving for p, Initial residual = 0.06989550616704598, Final residual = 2.575589785965023e-10, No Iterations 1
diagonal:  Solving for rho, Initial residual = 0, Final residual = 0, No Iterations 0
time step continuity errors : sum local = 3.22869652436475e-16, global = 3.217714635910152e-16, cumulative = -2.584029461468406e-15
DILUPBiCG:  Solving for p, Initial residual = 2.0436907471242e-08, Final residual = 3.265410404313616e-14, No Iterations 1
diagonal:  Solving for rho, Initial residual = 0, Final residual = 0, No Iterations 0
time step continuity errors : sum local = 3.159010433933646e-16, global = 3.150368918172566e-16, cumulative = -2.268992569651149e-15
DILUPBiCG:  Solving for k, Initial residual = 0.2042781441227817, Final residual = 3.42285154473889e-20, No Iterations 2
ExecutionTime = 30.72 s  ClockTime = 106 s

ORIG_COMP_STEP = 2.922338315000005
ORIG_IO_STEP = 8.522287001000009
Courant Number mean: 7.403545226811708e-11 max: 7.468909815230527e-05
deltaT = 4.299816959999999e-09
Time = 1.97989e-08

PIMPLE: iteration 1
diagonal:  Solving for rho, Initial residual = 0, Final residual = 0, No Iterations 0
DILUPBiCG:  Solving for Ux, Initial residual = 0.2090173329928747, Final residual = 2.387103509695779e-20, No Iterations 2
DILUPBiCG:  Solving for Uy, Initial residual = 0.2090173328842323, Final residual = 4.13242254171366e-20, No Iterations 2
DILUPBiCG:  Solving for Uz, Initial residual = 0.06483302971356227, Final residual = 1.723075399910612e-20, No Iterations 2
DILUPBiCG:  Solving for e, Initial residual = 0.06481489593682004, Final residual = 6.189197051293471e-20, No Iterations 2
DILUPBiCG:  Solving for p, Initial residual = 0.06482824458766712, Final residual = 3.440953067601249e-10, No Iterations 1
diagonal:  Solving for rho, Initial residual = 0, Final residual = 0, No Iterations 0
time step continuity errors : sum local = 1.391701333467753e-16, global = -7.347670937176441e-17, cumulative = -2.342469279022914e-15
DILUPBiCG:  Solving for p, Initial residual = 1.745152944368126e-08, Final residual = 3.033980120155141e-14, No Iterations 1
diagonal:  Solving for rho, Initial residual = 0, Final residual = 0, No Iterations 0
time step continuity errors : sum local = 1.398930162552043e-16, global = -8.753879125836081e-17, cumulative = -2.430008070281275e-15
DILUPBiCG:  Solving for k, Initial residual = 0.1805908508019468, Final residual = 5.00154193570285e-20, No Iterations 2
ExecutionTime = 33.45 s  ClockTime = 117 s

ORIG_COMP_STEP = 2.686069916999998
ORIG_IO_STEP = 11.14330737899999
Courant Number mean: 8.884424112149055e-11 max: 8.961976116517043e-05
deltaT = 5.159780351999998e-09
Time = 2.49587e-08

PIMPLE: iteration 1
diagonal:  Solving for rho, Initial residual = 0, Final residual = 0, No Iterations 0
DILUPBiCG:  Solving for Ux, Initial residual = 0.1997579588086892, Final residual = 3.663767703480177e-20, No Iterations 2
DILUPBiCG:  Solving for Uy, Initial residual = 0.1997579584901214, Final residual = 6.444407630563417e-20, No Iterations 2
DILUPBiCG:  Solving for Uz, Initial residual = 0.06113770784927403, Final residual = 2.703811228477987e-20, No Iterations 2
DILUPBiCG:  Solving for e, Initial residual = 0.06111598173114465, Final residual = 9.43152566663334e-20, No Iterations 2
DILUPBiCG:  Solving for p, Initial residual = 0.06113196214672006, Final residual = 4.674091412624448e-10, No Iterations 1
diagonal:  Solving for rho, Initial residual = 0, Final residual = 0, No Iterations 0
time step continuity errors : sum local = 2.868228789342196e-16, global = -2.820851059991626e-16, cumulative = -2.712093176280437e-15
DILUPBiCG:  Solving for p, Initial residual = 1.221398538880189e-08, Final residual = 2.336507744133224e-14, No Iterations 1
diagonal:  Solving for rho, Initial residual = 0, Final residual = 0, No Iterations 0
time step continuity errors : sum local = 2.834420331190463e-16, global = -2.79859851413306e-16, cumulative = -2.991953027693743e-15
DILUPBiCG:  Solving for k, Initial residual = 0.1635154008142163, Final residual = 7.680254139819381e-20, No Iterations 2
ExecutionTime = 36.63 s  ClockTime = 132 s

ORIG_COMP_STEP = 3.115663373000004
ORIG_IO_STEP = 9.637612762999993
Courant Number mean: 1.066155798260808e-10 max: 0.000107533439730967
deltaT = 6.191736422399998e-09
Time = 3.11504e-08

PIMPLE: iteration 1
diagonal:  Solving for rho, Initial residual = 0, Final residual = 0, No Iterations 0
DILUPBiCG:  Solving for Ux, Initial residual = 0.1925419871170842, Final residual = 5.773677858376625e-20, No Iterations 2
DILUPBiCG:  Solving for Uy, Initial residual = 0.1925419868098334, Final residual = 1.030582116266668e-19, No Iterations 2
DILUPBiCG:  Solving for Uz, Initial residual = 0.05836281926658522, Final residual = 4.384971924719032e-20, No Iterations 2
DILUPBiCG:  Solving for e, Initial residual = 0.05833679880512711, Final residual = 1.485051302944801e-19, No Iterations 2
DILUPBiCG:  Solving for p, Initial residual = 0.05835589991078687, Final residual = 6.427771699386852e-10, No Iterations 1
diagonal:  Solving for rho, Initial residual = 0, Final residual = 0, No Iterations 0
time step continuity errors : sum local = 5.191450607546976e-16, global = -5.104623073512551e-16, cumulative = -3.502415335044998e-15
DILUPBiCG:  Solving for p, Initial residual = 8.232634410469803e-09, Final residual = 1.842478481885688e-14, No Iterations 1
diagonal:  Solving for rho, Initial residual = 0, Final residual = 0, No Iterations 0
time step continuity errors : sum local = 5.253918908898384e-16, global = -5.23297292471215e-16, cumulative = -4.025712627516213e-15
DILUPBiCG:  Solving for k, Initial residual = 0.1508056956122642, Final residual = 1.233973700667702e-19, No Iterations 2
ExecutionTime = 38.18 s  ClockTime = 144 s

ORIG_COMP_STEP = 1.490164090999997
ORIG_IO_STEP = 11.220204803
Courant Number mean: 1.279423598881687e-10 max: 0.0001290253889150598
deltaT = 7.430083706879997e-09
Time = 3.85805e-08

PIMPLE: iteration 1
diagonal:  Solving for rho, Initial residual = 0, Final residual = 0, No Iterations 0
DILUPBiCG:  Solving for Ux, Initial residual = 0.1868537988246544, Final residual = 9.329164088943227e-20, No Iterations 2
DILUPBiCG:  Solving for Uy, Initial residual = 0.186853798575687, Final residual = 1.68440325138761e-19, No Iterations 2
DILUPBiCG:  Solving for Uz, Initial residual = 0.05623286622788452, Final residual = 7.326801178857188e-20, No Iterations 2
DILUPBiCG:  Solving for e, Initial residual = 0.05620169699152311, Final residual = 2.412214174428791e-19, No Iterations 2
DILUPBiCG:  Solving for p, Initial residual = 0.05622458927070541, Final residual = 8.922509812759493e-10, No Iterations 1
diagonal:  Solving for rho, Initial residual = 0, Final residual = 0, No Iterations 0
time step continuity errors : sum local = 2.428155291810872e-16, global = 2.061415259875142e-16, cumulative = -3.819571101528699e-15
DILUPBiCG:  Solving for p, Initial residual = 1.032296401899954e-08, Final residual = 2.666479636743009e-14, No Iterations 1
diagonal:  Solving for rho, Initial residual = 0, Final residual = 0, No Iterations 0
time step continuity errors : sum local = 1.979687641604235e-16, global = 1.588440346663241e-16, cumulative = -3.660727066862375e-15
DILUPBiCG:  Solving for k, Initial residual = 0.141103650661324, Final residual = 2.06800976001785e-19, No Iterations 2
ExecutionTime = 39.65 s  ClockTime = 158 s

ORIG_COMP_STEP = 1.386483136999999
ORIG_IO_STEP = 11.495160723
Courant Number mean: 1.535362429315266e-10 max: 0.0001548093385833503
deltaT = 8.916100448255996e-09
Time = 4.74966e-08

PIMPLE: iteration 1
diagonal:  Solving for rho, Initial residual = 0, Final residual = 0, No Iterations 0
DILUPBiCG:  Solving for Ux, Initial residual = 0.1823252000085222, Final residual = 1.543345825050198e-19, No Iterations 2
DILUPBiCG:  Solving for Uy, Initial residual = 0.1823251997132861, Final residual = 2.955733268176439e-19, No Iterations 2
DILUPBiCG:  Solving for Uz, Initial residual = 0.05456982741618459, Final residual = 1.258046002694301e-19, No Iterations 2
DILUPBiCG:  Solving for e, Initial residual = 0.05453248966923874, Final residual = 4.03859603187286e-19, No Iterations 2
DILUPBiCG:  Solving for p, Initial residual = 0.05455990215979757, Final residual = 1.247570688984662e-09, No Iterations 1
diagonal:  Solving for rho, Initial residual = 0, Final residual = 0, No Iterations 0
time step continuity errors : sum local = 1.532250434204646e-16, global = -6.998142475646165e-17, cumulative = -3.730708491618836e-15
DILUPBiCG:  Solving for p, Initial residual = 9.642814824573266e-09, Final residual = 2.919239713899447e-14, No Iterations 1
diagonal:  Solving for rho, Initial residual = 0, Final residual = 0, No Iterations 0
time step continuity errors : sum local = 1.532858895963469e-16, global = -1.089396457386599e-16, cumulative = -3.839648137357496e-15
DILUPBiCG:  Solving for k, Initial residual = 0.1335466811504961, Final residual = 3.606217437467736e-19, No Iterations 2
ExecutionTime = 41.68 s  ClockTime = 172 s

ORIG_COMP_STEP = 1.942763451000019
ORIG_IO_STEP = 9.002324651999999
Courant Number mean: 1.842515163809209e-10 max: 0.0001857409471672459
deltaT = 1.069932053790719e-08
Time = 5.81959e-08

PIMPLE: iteration 1
diagonal:  Solving for rho, Initial residual = 0, Final residual = 0, No Iterations 0
DILUPBiCG:  Solving for Ux, Initial residual = 0.1786887480518849, Final residual = 2.609450070705453e-19, No Iterations 2
DILUPBiCG:  Solving for Uy, Initial residual = 0.178688747846511, Final residual = 5.471005710711755e-19, No Iterations 2
DILUPBiCG:  Solving for Uz, Initial residual = 0.05325349149522889, Final residual = 2.214462583930295e-19, No Iterations 2
DILUPBiCG:  Solving for e, Initial residual = 0.05320876537484457, Final residual = 6.965803946722343e-19, No Iterations 2
DILUPBiCG:  Solving for p, Initial residual = 0.0532415878474444, Final residual = 1.754397093180358e-09, No Iterations 1
diagonal:  Solving for rho, Initial residual = 0, Final residual = 0, No Iterations 0
time step continuity errors : sum local = 1.721597214170919e-16, global = -9.214047571015655e-17, cumulative = -3.931788613067653e-15
DILUPBiCG:  Solving for p, Initial residual = 7.083252021801047e-09, Final residual = 2.53022780898009e-14, No Iterations 1
diagonal:  Solving for rho, Initial residual = 0, Final residual = 0, No Iterations 0
time step continuity errors : sum local = 1.537026556707036e-16, global = -1.246392211980768e-16, cumulative = -4.05642783426573e-15
DILUPBiCG:  Solving for k, Initial residual = 0.1275637938282434, Final residual = 6.528809487793336e-19, No Iterations 2
ExecutionTime = 43.79 s  ClockTime = 184 s

ORIG_COMP_STEP = 2.04019171600001
ORIG_IO_STEP = 9.831122112999992
Courant Number mean: 2.211137773186977e-10 max: 0.0002228458487620227
deltaT = 1.283918464548863e-08
Time = 7.10351e-08

PIMPLE: iteration 1
diagonal:  Solving for rho, Initial residual = 0, Final residual = 0, No Iterations 0
DILUPBiCG:  Solving for Ux, Initial residual = 0.1757467122180766, Final residual = 4.49886223543423e-19, No Iterations 2
DILUPBiCG:  Solving for Uy, Initial residual = 0.1757467121457113, Final residual = 1.053391648149593e-18, No Iterations 2
DILUPBiCG:  Solving for Uz, Initial residual = 0.05219971917102451, Final residual = 3.98634458437962e-19, No Iterations 2
DILUPBiCG:  Solving for e, Initial residual = 0.05214606470025688, Final residual = 1.237267157612005e-18, No Iterations 2
DILUPBiCG:  Solving for p, Initial residual = 0.05218547398953613, Final residual = 2.478430678759849e-09, No Iterations 1
diagonal:  Solving for rho, Initial residual = 0, Final residual = 0, No Iterations 0
time step continuity errors : sum local = 4.856117595927336e-16, global = -4.27073849547227e-16, cumulative = -4.483501683812957e-15
DILUPBiCG:  Solving for p, Initial residual = 6.230126445961059e-09, Final residual = 2.636503651863251e-14, No Iterations 1
diagonal:  Solving for rho, Initial residual = 0, Final residual = 0, No Iterations 0
time step continuity errors : sum local = 4.326262461153533e-16, global = -4.325855472920048e-16, cumulative = -4.916087231104962e-15
DILUPBiCG:  Solving for k, Initial residual = 0.122763570660589, Final residual = 1.224356708257924e-18, No Iterations 2
ExecutionTime = 45.41 s  ClockTime = 196 s

ORIG_COMP_STEP = 1.558062729
ORIG_IO_STEP = 13.08145094299999
Courant Number mean: 2.653544440141157e-10 max: 0.0002673531757326265
deltaT = 1.540702157458636e-08
Time = 8.64421e-08

PIMPLE: iteration 1
diagonal:  Solving for rho, Initial residual = 0, Final residual = 0, No Iterations 0
DILUPBiCG:  Solving for Ux, Initial residual = 0.1733503888148336, Final residual = 7.884497063187278e-19, No Iterations 2
DILUPBiCG:  Solving for Uy, Initial residual = 0.1733503888819036, Final residual = 2.062729681774668e-18, No Iterations 2
DILUPBiCG:  Solving for Uz, Initial residual = 0.05134783532398601, Final residual = 7.319403761244495e-19, No Iterations 2
DILUPBiCG:  Solving for e, Initial residual = 0.05128358497927832, Final residual = 2.262020915315217e-18, No Iterations 2
DILUPBiCG:  Solving for p, Initial residual = 0.05133082889838307, Final residual = 3.514252803520997e-09, No Iterations 1
diagonal:  Solving for rho, Initial residual = 0, Final residual = 0, No Iterations 0
time step continuity errors : sum local = 3.205644488182555e-16, global = 2.463296428014879e-16, cumulative = -4.669757588303474e-15
DILUPBiCG:  Solving for p, Initial residual = 7.085862908987929e-09, Final residual = 3.562374116837621e-14, No Iterations 1
diagonal:  Solving for rho, Initial residual = 0, Final residual = 0, No Iterations 0
time step continuity errors : sum local = 2.474861769708317e-16, global = 2.390094654068306e-16, cumulative = -4.430748122896644e-15
DILUPBiCG:  Solving for k, Initial residual = 0.1188695542629935, Final residual = 2.372425787213376e-18, No Iterations 2
ExecutionTime = 50.07 s  ClockTime = 215 s

ORIG_COMP_STEP = 4.574569260999994
ORIG_IO_STEP = 11.16917452500002
Courant Number mean: 3.184523155218214e-10 max: 0.0003207356037221298
deltaT = 1.848842588950363e-08
Time = 1.04931e-07

PIMPLE: iteration 1
diagonal:  Solving for rho, Initial residual = 0, Final residual = 0, No Iterations 0
DILUPBiCG:  Solving for Ux, Initial residual = 0.1713861681373126, Final residual = 1.398582649948413e-18, No Iterations 2
DILUPBiCG:  Solving for Uy, Initial residual = 0.171386168237144, Final residual = 4.116622657038809e-18, No Iterations 2
DILUPBiCG:  Solving for Uz, Initial residual = 0.05065296332213935, Final residual = 1.366615136342051e-18, No Iterations 2
DILUPBiCG:  Solving for e, Initial residual = 0.05057604401396498, Final residual = 4.253724559120605e-18, No Iterations 2
DILUPBiCG:  Solving for p, Initial residual = 0.05063268451626999, Final residual = 4.998107511408205e-09, No Iterations 1
diagonal:  Solving for rho, Initial residual = 0, Final residual = 0, No Iterations 0
time step continuity errors : sum local = 4.256098831671008e-16, global = 3.196418257524712e-16, cumulative = -4.111106297144173e-15
DILUPBiCG:  Solving for p, Initial residual = 7.851256092405469e-09, Final residual = 4.708684392596983e-14, No Iterations 1
diagonal:  Solving for rho, Initial residual = 0, Final residual = 0, No Iterations 0
time step continuity errors : sum local = 2.788402480352079e-16, global = 2.755481530757456e-16, cumulative = -3.835558144068427e-15
DILUPBiCG:  Solving for k, Initial residual = 0.1156814569298314, Final residual = 4.737009377628646e-18, No Iterations 2
ExecutionTime = 50.85 s  ClockTime = 228 s

ORIG_COMP_STEP = 0.6686383809999938
ORIG_IO_STEP = 10.20297302099999
Courant Number mean: 3.821836782892676e-10 max: 0.0003847571616184499
deltaT = 2.218611106740435e-08
Time = 1.27117e-07

PIMPLE: iteration 1
diagonal:  Solving for rho, Initial residual = 0, Final residual = 0, No Iterations 0
DILUPBiCG:  Solving for Ux, Initial residual = 0.1697659763154981, Final residual = 2.495505271003539e-18, No Iterations 2
DILUPBiCG:  Solving for Uy, Initial residual = 0.1697659763962325, Final residual = 8.408997418651544e-18, No Iterations 2
DILUPBiCG:  Solving for Uz, Initial residual = 0.05008116439171855, Final residual = 2.585148517853147e-18, No Iterations 2
DILUPBiCG:  Solving for e, Initial residual = 0.04998909840442726, Final residual = 8.21929299974573e-18, No Iterations 2
DILUPBiCG:  Solving for p, Initial residual = 0.05005702965768553, Final residual = 7.126391788898755e-09, No Iterations 1
diagonal:  Solving for rho, Initial residual = 0, Final residual = 0, No Iterations 0
time step continuity errors : sum local = 4.868001682062499e-16, global = -1.678797790252462e-16, cumulative = -4.003437923093673e-15
DILUPBiCG:  Solving for p, Initial residual = 9.310209016173326e-09, Final residual = 6.686478575967929e-14, No Iterations 1
diagonal:  Solving for rho, Initial residual = 0, Final residual = 0, No Iterations 0
time step continuity errors : sum local = 2.498494375670555e-16, global = -2.340850010999857e-16, cumulative = -4.237522924193659e-15
DILUPBiCG:  Solving for k, Initial residual = 0.1130508733742496, Final residual = 9.717876747385786e-18, No Iterations 2
ExecutionTime = 52.83 s  ClockTime = 241 s

ORIG_COMP_STEP = 1.924453894999999
ORIG_IO_STEP = 12.838774852
Courant Number mean: 4.586828152557352e-10 max: 0.0004615302830703819
deltaT = 2.662333328088522e-08
Time = 1.5374e-07

PIMPLE: iteration 1
diagonal:  Solving for rho, Initial residual = 0, Final residual = 0, No Iterations 0
DILUPBiCG:  Solving for Ux, Initial residual = 0.1684205860856924, Final residual = 4.437464890619912e-18, No Iterations 2
DILUPBiCG:  Solving for Uy, Initial residual = 0.1684205861450141, Final residual = 1.770574582418837e-17, No Iterations 2
DILUPBiCG:  Solving for Uz, Initial residual = 0.04960627258593426, Final residual = 4.931390839457917e-18, No Iterations 2
DILUPBiCG:  Solving for e, Initial residual = 0.04949610206347917, Final residual = 1.629668900511809e-17, No Iterations 2
DILUPBiCG:  Solving for p, Initial residual = 0.04957759103660769, Final residual = 1.018242374793914e-08, No Iterations 1
diagonal:  Solving for rho, Initial residual = 0, Final residual = 0, No Iterations 0
time step continuity errors : sum local = 1.013943259084622e-15, global = -4.893366109872722e-16, cumulative = -4.726859535180931e-15
DILUPBiCG:  Solving for p, Initial residual = 1.214345714929077e-08, Final residual = 1.047011534536306e-13, No Iterations 1
diagonal:  Solving for rho, Initial residual = 0, Final residual = 0, No Iterations 0
time step continuity errors : sum local = 5.888210012717962e-16, global = -5.865858106561065e-16, cumulative = -5.313445345837038e-15
DILUPBiCG:  Solving for k, Initial residual = 0.1108656712398082, Final residual = 2.04208849670632e-17, No Iterations 2
ExecutionTime = 56.26 s  ClockTime = 259 s

ORIG_COMP_STEP = 3.351313279999999
ORIG_IO_STEP = 14.771934483
Courant Number mean: 5.50515237440828e-10 max: 0.0005535838593398175
deltaT = 3.194799993706226e-08
Time = 1.85688e-07

PIMPLE: iteration 1
diagonal:  Solving for rho, Initial residual = 0, Final residual = 0, No Iterations 0
DILUPBiCG:  Solving for Ux, Initial residual = 0.1672948818942763, Final residual = 7.744630410518337e-18, No Iterations 2
DILUPBiCG:  Solving for Uy, Initial residual = 0.1672948819266904, Final residual = 4.232759628528776e-17, No Iterations 2
DILUPBiCG:  Solving for Uz, Initial residual = 0.0492077422873193, Final residual = 9.426731584224033e-18, No Iterations 2
DILUPBiCG:  Solving for e, Initial residual = 0.04907595380778554, Final residual = 3.310015547582815e-17, No Iterations 2
DILUPBiCG:  Solving for p, Initial residual = 0.04917370418448608, Final residual = 1.457524548330378e-08, No Iterations 1
diagonal:  Solving for rho, Initial residual = 0, Final residual = 0, No Iterations 0
time step continuity errors : sum local = 8.484386645547987e-16, global = 1.513599277548823e-16, cumulative = -5.162085418082156e-15
DILUPBiCG:  Solving for p, Initial residual = 1.500225871598107e-08, Final residual = 1.558409412806789e-13, No Iterations 1
diagonal:  Solving for rho, Initial residual = 0, Final residual = 0, No Iterations 0
time step continuity errors : sum local = 1.182130995088432e-16, global = -5.090686871293074e-17, cumulative = -5.212992286795086e-15
DILUPBiCG:  Solving for k, Initial residual = 0.1090397033148034, Final residual = 4.382230293875204e-17, No Iterations 2
ExecutionTime = 57.16 s  ClockTime = 276 s

ORIG_COMP_STEP = 0.7825249730000223
ORIG_IO_STEP = 10.94682508299999
Courant Number mean: 6.60766576170652e-10 max: 0.0006639444024474666
deltaT = 3.833759992447472e-08
Time = 2.24026e-07

PIMPLE: iteration 1
diagonal:  Solving for rho, Initial residual = 0, Final residual = 0, No Iterations 0
DILUPBiCG:  Solving for Ux, Initial residual = 0.1663444086014417, Final residual = 1.289713509533518e-17, No Iterations 2
DILUPBiCG:  Solving for Uy, Initial residual = 0.1663444086153966, Final residual = 1.077538951765424e-16, No Iterations 2
DILUPBiCG:  Solving for Uz, Initial residual = 0.04886915209449717, Final residual = 1.789095508326413e-17, No Iterations 2
DILUPBiCG:  Solving for e, Initial residual = 0.04871155510193564, Final residual = 6.873392550247161e-17, No Iterations 2
DILUPBiCG:  Solving for p, Initial residual = 0.04882884476019322, Final residual = 2.089594465048227e-08, No Iterations 1
diagonal:  Solving for rho, Initial residual = 0, Final residual = 0, No Iterations 0
time step continuity errors : sum local = 1.380883397084991e-15, global = 4.177408465014093e-16, cumulative = -4.795251440293677e-15
DILUPBiCG:  Solving for p, Initial residual = 2.037034146869989e-08, Final residual = 2.55625785112633e-13, No Iterations 1
diagonal:  Solving for rho, Initial residual = 0, Final residual = 0, No Iterations 0
time step continuity errors : sum local = 1.320386136895585e-16, global = 6.998075071532213e-17, cumulative = -4.725270689578355e-15
DILUPBiCG:  Solving for k, Initial residual = 0.107505748840976, Final residual = 9.575511612767077e-17, No Iterations 2
ExecutionTime = 59.89 s  ClockTime = 290 s

ORIG_COMP_STEP = 2.679101677000006
ORIG_IO_STEP = 14.77260801599999
Courant Number mean: 7.931509158453745e-10 max: 0.0007962328698137065
deltaT = 4.600511990936966e-08
Time = 2.70031e-07

PIMPLE: iteration 1
diagonal:  Solving for rho, Initial residual = 0, Final residual = 0, No Iterations 0
DILUPBiCG:  Solving for Ux, Initial residual = 0.1655328422749431, Final residual = 1.921429772829698e-17, No Iterations 2
DILUPBiCG:  Solving for Uy, Initial residual = 0.1655328422843846, Final residual = 3.021043124571171e-16, No Iterations 2
DILUPBiCG:  Solving for Uz, Initial residual = 0.04857713511451746, Final residual = 3.320051771639438e-17, No Iterations 2
DILUPBiCG:  Solving for e, Initial residual = 0.04838876922580126, Final residual = 1.456061088245637e-16, No Iterations 2
DILUPBiCG:  Solving for p, Initial residual = 0.04852954056126867, Final residual = 2.999951241191973e-08, No Iterations 1
diagonal:  Solving for rho, Initial residual = 0, Final residual = 0, No Iterations 0
time step continuity errors : sum local = 2.412263593485021e-15, global = 3.052295761618678e-16, cumulative = -4.420041113416487e-15
DILUPBiCG:  Solving for p, Initial residual = 2.864323289536786e-08, Final residual = 4.353870147957582e-13, No Iterations 1
diagonal:  Solving for rho, Initial residual = 0, Final residual = 0, No Iterations 0
time step continuity errors : sum local = 2.568377472978244e-16, global = -2.458378259070406e-16, cumulative = -4.665878939323528e-15
DILUPBiCG:  Solving for k, Initial residual = 0.1062106420317672, Final residual = 2.12466358946778e-16, No Iterations 2
ExecutionTime = 64.73 s  ClockTime = 312 s

ORIG_COMP_STEP = 4.728672183000015
ORIG_IO_STEP = 9.904781538999998
Courant Number mean: 9.52143522147745e-10 max: 0.0009547802819188148
deltaT = 5.520614389124359e-08
Time = 3.25237e-07

PIMPLE: iteration 1
diagonal:  Solving for rho, Initial residual = 0, Final residual = 0, No Iterations 0
DILUPBiCG:  Solving for Ux, Initial residual = 0.1648300838557074, Final residual = 2.046668640866156e-17, No Iterations 2
DILUPBiCG:  Solving for Uy, Initial residual = 0.1648300838534703, Final residual = 1.243133250796178e-15, No Iterations 2
DILUPBiCG:  Solving for Uz, Initial residual = 0.04832060394785548, Final residual = 5.848165459870402e-17, No Iterations 2
DILUPBiCG:  Solving for e, Initial residual = 0.0480955891991383, Final residual = 3.139507558609332e-16, No Iterations 2
DILUPBiCG:  Solving for p, Initial residual = 0.0482645770064877, Final residual = 4.312400979645111e-08, No Iterations 1
diagonal:  Solving for rho, Initial residual = 0, Final residual = 0, No Iterations 0
time step continuity errors : sum local = 3.935544743070195e-15, global = 1.14840329565243e-15, cumulative = -3.517475643671097e-15
DILUPBiCG:  Solving for p, Initial residual = 4.071428850479237e-08, Final residual = 7.520312929200638e-13, No Iterations 1
diagonal:  Solving for rho, Initial residual = 0, Final residual = 0, No Iterations 0
time step continuity errors : sum local = 2.625784946098497e-16, global = 2.067123817873871e-16, cumulative = -3.31076326188371e-15
DILUPBiCG:  Solving for k, Initial residual = 0.1051118191387428, Final residual = 4.775399557194888e-16, No Iterations 2
ExecutionTime = 67.66 s  ClockTime = 325 s

ORIG_COMP_STEP = 2.881543622000038
ORIG_IO_STEP = 10.45964843399997
Courant Number mean: 1.143144601513674e-09 max: 0.001144766058994421
deltaT = 6.62473726694923e-08
Time = 3.91484e-07

PIMPLE: iteration 1
diagonal:  Solving for rho, Initial residual = 0, Final residual = 0, No Iterations 0
DILUPBiCG:  Solving for Ux, Initial residual = 0.1642108090110015, Final residual = 4.586171774799269e-17, No Iterations 2
DILUPBiCG:  Solving for Uy, Initial residual = 0.1642108090044522, Final residual = 7.67174304732697e-14, No Iterations 2
DILUPBiCG:  Solving for Uz, Initial residual = 0.04809017019541251, Final residual = 1.408549838216799e-16, No Iterations 2
DILUPBiCG:  Solving for e, Initial residual = 0.04782162235754221, Final residual = 6.874012611627169e-16, No Iterations 2
DILUPBiCG:  Solving for p, Initial residual = 0.04802450516553023, Final residual = 6.20644511195512e-08, No Iterations 1
diagonal:  Solving for rho, Initial residual = 0, Final residual = 0, No Iterations 0
time step continuity errors : sum local = 6.678085873090449e-15, global = 1.919685904619472e-15, cumulative = -1.391077357264238e-15
DILUPBiCG:  Solving for p, Initial residual = 5.841904693669634e-08, Final residual = 3.479747436990257e-19, No Iterations 2
diagonal:  Solving for rho, Initial residual = 0, Final residual = 0, No Iterations 0
time step continuity errors : sum local = 2.439403101450268e-16, global = 2.338167459192186e-16, cumulative = -1.157260611345019e-15
DILUPBiCG:  Solving for k, Initial residual = 0.1041748254814808, Final residual = 1.084882772079053e-15, No Iterations 2
ExecutionTime = 69.16 s  ClockTime = 338 s

ORIG_COMP_STEP = 1.451696890999983
ORIG_IO_STEP = 11.32943182600002
Courant Number mean: 1.372683189744944e-09 max: 0.001372384141132377
deltaT = 7.949684720339076e-08
Time = 4.70981e-07

PIMPLE: iteration 1
diagonal:  Solving for rho, Initial residual = 0, Final residual = 0, No Iterations 0
DILUPBiCG:  Solving for Ux, Initial residual = 0.1636533444397776, Final residual = 2.379487522769537e-16, No Iterations 2
DILUPBiCG:  Solving for Uy, Initial residual = 0.1636533444270492, Final residual = 4.635337134815662e-15, No Iterations 2
DILUPBiCG:  Solving for Uz, Initial residual = 0.04787770355070127, Final residual = 4.837489701929346e-16, No Iterations 2
DILUPBiCG:  Solving for e, Initial residual = 0.04755752941620911, Final residual = 1.524893348729829e-15, No Iterations 2
DILUPBiCG:  Solving for p, Initial residual = 0.04780112239746417, Final residual = 8.942687880321628e-08, No Iterations 1
diagonal:  Solving for rho, Initial residual = 0, Final residual = 0, No Iterations 0
time step continuity errors : sum local = 1.132614590454919e-14, global = 3.114067924978961e-15, cumulative = 1.956807313633942e-15
DILUPBiCG:  Solving for p, Initial residual = 8.459635090620484e-08, Final residual = 1.067266268224362e-18, No Iterations 2
diagonal:  Solving for rho, Initial residual = 0, Final residual = 0, No Iterations 0
time step continuity errors : sum local = 1.487651490745795e-16, global = 1.262340430556059e-16, cumulative = 2.083041356689548e-15
DILUPBiCG:  Solving for k, Initial residual = 0.1033714889474031, Final residual = 2.486634893346519e-15, No Iterations 2
ExecutionTime = 73.11 s  ClockTime = 354 s

ORIG_COMP_STEP = 3.893388455999968
ORIG_IO_STEP = 17.10030172299997
Courant Number mean: 1.648673951171209e-09 max: 0.001645043660237712
deltaT = 9.53962166440689e-08
Time = 5.66377e-07

PIMPLE: iteration 1
diagonal:  Solving for rho, Initial residual = 0, Final residual = 0, No Iterations 0
DILUPBiCG:  Solving for Ux, Initial residual = 0.1631387974452312, Final residual = 9.136621692358101e-16, No Iterations 2
DILUPBiCG:  Solving for Uy, Initial residual = 0.1631387974346349, Final residual = 4.769731723309427e-15, No Iterations 2
DILUPBiCG:  Solving for Uz, Initial residual = 0.04767599177176938, Final residual = 1.720901034620288e-15, No Iterations 2
DILUPBiCG:  Solving for e, Initial residual = 0.04729473490681638, Final residual = 3.419878351727557e-15, No Iterations 2
DILUPBiCG:  Solving for p, Initial residual = 0.04758721641648516, Final residual = 1.290007062356473e-07, No Iterations 1
diagonal:  Solving for rho, Initial residual = 0, Final residual = 0, No Iterations 0
time step continuity errors : sum local = 1.982128239872249e-14, global = 5.703976914303223e-15, cumulative = 7.78701827099277e-15
DILUPBiCG:  Solving for p, Initial residual = 1.22762200079486e-07, Final residual = 3.293160003910547e-18, No Iterations 2
diagonal:  Solving for rho, Initial residual = 0, Final residual = 0, No Iterations 0
time step continuity errors : sum local = 5.09263390980447e-16, global = 5.025523197234094e-16, cumulative = 8.28957059071618e-15
DILUPBiCG:  Solving for k, Initial residual = 0.102678552677981, Final residual = 5.741699885293154e-15, No Iterations 2
ExecutionTime = 75.66 s  ClockTime = 374 s

ORIG_COMP_STEP = 2.449359995000009
ORIG_IO_STEP = 8.291180745999952
Courant Number mean: 1.980745283249334e-09 max: 0.00197161358078913
deltaT = 1.144754599728827e-07
Time = 6.80853e-07

PIMPLE: iteration 1
diagonal:  Solving for rho, Initial residual = 0, Final residual = 0, No Iterations 0
DILUPBiCG:  Solving for Ux, Initial residual = 0.1626503755204102, Final residual = 3.136724699932386e-15, No Iterations 2
DILUPBiCG:  Solving for Uy, Initial residual = 0.1626503755124034, Final residual = 1.45649372748835e-14, No Iterations 2
DILUPBiCG:  Solving for Uz, Initial residual = 0.04747847880902516, Final residual = 7.186936966424709e-15, No Iterations 2
DILUPBiCG:  Solving for e, Initial residual = 0.04702518002137216, Final residual = 7.738467920917049e-15, No Iterations 2
DILUPBiCG:  Solving for p, Initial residual = 0.04737633545610957, Final residual = 1.863055310404903e-07, No Iterations 1
diagonal:  Solving for rho, Initial residual = 0, Final residual = 0, No Iterations 0
time step continuity errors : sum local = 3.361655629676984e-14, global = 8.989927874464461e-15, cumulative = 1.727949846518064e-14
DILUPBiCG:  Solving for p, Initial residual = 1.792503253522855e-07, Final residual = 1.026646058355123e-17, No Iterations 2
diagonal:  Solving for rho, Initial residual = 0, Final residual = 0, No Iterations 0
time step continuity errors : sum local = 1.754422740892842e-16, global = -1.264206450950498e-16, cumulative = 1.715307782008559e-14
DILUPBiCG:  Solving for k, Initial residual = 0.1020766852072715, Final residual = 1.333969411980437e-14, No Iterations 2
ExecutionTime = 77.73999999999999 s  ClockTime = 385 s

ORIG_COMP_STEP = 2.023853889999998
ORIG_IO_STEP = 9.897162772000001
Courant Number mean: 2.380665807843964e-09 max: 0.002362724964306341
deltaT = 1.373705519674592e-07
Time = 8.18223e-07

PIMPLE: iteration 1
diagonal:  Solving for rho, Initial residual = 0, Final residual = 0, No Iterations 0
DILUPBiCG:  Solving for Ux, Initial residual = 0.1621728659597217, Final residual = 1.0182819112513e-14, No Iterations 2
DILUPBiCG:  Solving for Uy, Initial residual = 0.1621728659529113, Final residual = 4.273992133989994e-14, No Iterations 2
DILUPBiCG:  Solving for Uz, Initial residual = 0.04727908020827542, Final residual = 9.980427530773548e-14, No Iterations 2
DILUPBiCG:  Solving for e, Initial residual = 0.04674109754615415, Final residual = 1.763547560617739e-14, No Iterations 2
DILUPBiCG:  Solving for p, Initial residual = 0.04716262262892625, Final residual = 2.693962054849355e-07, No Iterations 1
diagonal:  Solving for rho, Initial residual = 0, Final residual = 0, No Iterations 0
time step continuity errors : sum local = 5.820309591124727e-14, global = 1.629881384390206e-14, cumulative = 3.345189166398765e-14
DILUPBiCG:  Solving for p, Initial residual = 2.627361760232329e-07, Final residual = 3.22857341978663e-17, No Iterations 2
diagonal:  Solving for rho, Initial residual = 0, Final residual = 0, No Iterations 0
time step continuity errors : sum local = 2.537771068931606e-16, global = 2.37540865578876e-16, cumulative = 3.368943252956652e-14
DILUPBiCG:  Solving for k, Initial residual = 0.1015496993644157, Final residual = 3.115506980728566e-14, No Iterations 2
ExecutionTime = 78.87 s  ClockTime = 397 s

ORIG_COMP_STEP = 1.056605297999965
ORIG_IO_STEP = 11.08249548200001
Courant Number mean: 2.862909935916788e-09 max: 0.002831151431733681
deltaT = 1.64844662360951e-07
Time = 9.83068e-07

PIMPLE: iteration 1
diagonal:  Solving for rho, Initial residual = 0, Final residual = 0, No Iterations 0
DILUPBiCG:  Solving for Ux, Initial residual = 0.1616922614868404, Final residual = 3.201095779819748e-14, No Iterations 2
DILUPBiCG:  Solving for Uy, Initial residual = 0.1616922614818389, Final residual = 1.269596657725802e-13, No Iterations 2
DILUPBiCG:  Solving for Uz, Initial residual = 0.04707203828886142, Final residual = 5.03541868914832e-14, No Iterations 2
DILUPBiCG:  Solving for e, Initial residual = 0.04643494737357684, Final residual = 4.041231672343249e-14, No Iterations 2
DILUPBiCG:  Solving for p, Initial residual = 0.04694076306720343, Final residual = 3.900511411125531e-07, No Iterations 1
diagonal:  Solving for rho, Initial residual = 0, Final residual = 0, No Iterations 0
time step continuity errors : sum local = 1.007087079092456e-13, global = 2.859851283967773e-14, cumulative = 6.228794536924425e-14
DILUPBiCG:  Solving for p, Initial residual = 3.862533190760363e-07, Final residual = 1.023976886307237e-16, No Iterations 2
diagonal:  Solving for rho, Initial residual = 0, Final residual = 0, No Iterations 0
time step continuity errors : sum local = 2.035691345324731e-16, global = 1.958360772617992e-16, cumulative = 6.248378144650605e-14
DILUPBiCG:  Solving for k, Initial residual = 0.1010839782498445, Final residual = 7.309649208640561e-14, No Iterations 2
ExecutionTime = 82.17 s  ClockTime = 412 s

ORIG_COMP_STEP = 3.241200657000036
ORIG_IO_STEP = 14.08127426599998
Courant Number mean: 3.445424697985576e-09 max: 0.003392299833723809
deltaT = 1.978135948331412e-07
Time = 1.18088e-06

PIMPLE: iteration 1
diagonal:  Solving for rho, Initial residual = 0, Final residual = 0, No Iterations 0
DILUPBiCG:  Solving for Ux, Initial residual = 0.1611955280639241, Final residual = 9.862307695386643e-14, No Iterations 2
DILUPBiCG:  Solving for Uy, Initial residual = 0.1611955280601493, Final residual = 3.884985195327332e-13, No Iterations 2
DILUPBiCG:  Solving for Uz, Initial residual = 0.04685187130852817, Final residual = 6.722580483009462e-14, No Iterations 2
DILUPBiCG:  Solving for e, Initial residual = 0.04609939243489411, Final residual = 9.298957798131504e-14, No Iterations 2
DILUPBiCG:  Solving for p, Initial residual = 0.0467059740313389, Final residual = 5.655297700846456e-07, No Iterations 1
diagonal:  Solving for rho, Initial residual = 0, Final residual = 0, No Iterations 0
time step continuity errors : sum local = 1.748761889209134e-13, global = 4.969130374705512e-14, cumulative = 1.121750851935612e-13
DILUPBiCG:  Solving for p, Initial residual = 5.692589660224772e-07, Final residual = 3.276349454959092e-16, No Iterations 2
diagonal:  Solving for rho, Initial residual = 0, Final residual = 0, No Iterations 0
time step continuity errors : sum local = 5.955375527547832e-16, global = -5.938170509277126e-16, cumulative = 1.115812681426335e-13
DILUPBiCG:  Solving for k, Initial residual = 0.100668044114732, Final residual = 1.73097636565633e-13, No Iterations 2
ExecutionTime = 86.97 s  ClockTime = 431 s

ORIG_COMP_STEP = 4.73628350499996
ORIG_IO_STEP = 12.10069569299998
Courant Number mean: 4.150694228481195e-09 max: 0.004064862143466309
deltaT = 2.373763137997695e-07
Time = 1.41826e-06

PIMPLE: iteration 1
diagonal:  Solving for rho, Initial residual = 0, Final residual = 0, No Iterations 0
DILUPBiCG:  Solving for Ux, Initial residual = 0.1606705318660039, Final residual = 2.997670112255605e-13, No Iterations 2
[...]
ExecutionTime = 878.65 s  ClockTime = 5252 s

ORIG_COMP_STEP = 10.87791545599976
ORIG_IO_STEP = 35.86593894199996
Courant Number mean: 2.222251910387299e-06 max: 0.1996605554020744
deltaT = 2.74496045548354e-06
Time = 0.0001733

PIMPLE: iteration 1
diagonal:  Solving for rho, Initial residual = 0, Final residual = 0, No Iterations 0
DILUPBiCG:  Solving for Ux, Initial residual = 0.01620154694291484, Final residual = 1.063099582624086e-13, No Iterations 5
DILUPBiCG:  Solving for Uy, Initial residual = 0.01620153599168925, Final residual = 2.400183376213501e-13, No Iterations 5
DILUPBiCG:  Solving for Uz, Initial residual = 0.008008216609153424, Final residual = 1.961500909158466e-13, No Iterations 5
DILUPBiCG:  Solving for e, Initial residual = 0.01123409326536833, Final residual = 9.375644429238239e-13, No Iterations 4
DILUPBiCG:  Solving for p, Initial residual = 0.0146296711546918, Final residual = 2.142458063300829e-05, No Iterations 1
diagonal:  Solving for rho, Initial residual = 0, Final residual = 0, No Iterations 0
time step continuity errors : sum local = 8.886727618700017e-10, global = -2.60962560449924e-10, cumulative = -1.306927335945368e-08
DILUPBiCG:  Solving for p, Initial residual = 9.909655767202889e-05, Final residual = 7.653285790611953e-13, No Iterations 4
diagonal:  Solving for rho, Initial residual = 0, Final residual = 0, No Iterations 0
time step continuity errors : sum local = 1.993149281929193e-16, global = -5.674973944158933e-17, cumulative = -1.306927341620342e-08
DILUPBiCG:  Solving for k, Initial residual = 0.009159103258024137, Final residual = 4.652705309792189e-15, No Iterations 6
ExecutionTime = 891.95 s  ClockTime = 5302 s

ORIG_COMP_STEP = 13.09345319299973
ORIG_IO_STEP = 43.8562363459996
Courant Number mean: 2.280045898840918e-06 max: 0.1995639723393745
deltaT = 2.75095792422442e-06
Time = 0.000176051

PIMPLE: iteration 1
diagonal:  Solving for rho, Initial residual = 0, Final residual = 0, No Iterations 0
DILUPBiCG:  Solving for Ux, Initial residual = 0.01607375012037098, Final residual = 9.031338145323279e-14, No Iterations 5
DILUPBiCG:  Solving for Uy, Initial residual = 0.01607333243577319, Final residual = 2.368130052437163e-13, No Iterations 5
DILUPBiCG:  Solving for Uz, Initial residual = 0.007961872165400008, Final residual = 1.973186387117981e-13, No Iterations 5
DILUPBiCG:  Solving for e, Initial residual = 0.01117018711192047, Final residual = 4.637036422199041e-13, No Iterations 4
DILUPBiCG:  Solving for p, Initial residual = 0.01457797199337786, Final residual = 2.136325522013417e-05, No Iterations 1
diagonal:  Solving for rho, Initial residual = 0, Final residual = 0, No Iterations 0
time step continuity errors : sum local = 9.01691412973199e-10, global = -2.775801340312261e-10, cumulative = -1.334685355023465e-08
DILUPBiCG:  Solving for p, Initial residual = 0.0001037613751447143, Final residual = 1.28534877640844e-14, No Iterations 5
diagonal:  Solving for rho, Initial residual = 0, Final residual = 0, No Iterations 0
time step continuity errors : sum local = 1.872380976870002e-16, global = 1.13276406140439e-16, cumulative = -1.334685343695824e-08
DILUPBiCG:  Solving for k, Initial residual = 0.009186981041484115, Final residual = 2.898784024202921e-13, No Iterations 5
ExecutionTime = 897.54 s  ClockTime = 5353 s

ORIG_COMP_STEP = 5.268540361000305
ORIG_IO_STEP = 44.23129413600054
Courant Number mean: 2.339884437250127e-06 max: 0.1996182789856676
deltaT = 2.756218456749567e-06
Time = 0.000178807

PIMPLE: iteration 1
diagonal:  Solving for rho, Initial residual = 0, Final residual = 0, No Iterations 0
DILUPBiCG:  Solving for Ux, Initial residual = 0.01592644624274558, Final residual = 7.993634053024249e-14, No Iterations 5
DILUPBiCG:  Solving for Uy, Initial residual = 0.0159258991276515, Final residual = 2.362234945933635e-13, No Iterations 5
DILUPBiCG:  Solving for Uz, Initial residual = 0.007905054657821767, Final residual = 1.966750419041264e-13, No Iterations 5
DILUPBiCG:  Solving for e, Initial residual = 0.01117132118304116, Final residual = 3.421154477345366e-13, No Iterations 4
DILUPBiCG:  Solving for p, Initial residual = 0.01458206905258947, Final residual = 2.095317509204764e-05, No Iterations 1
diagonal:  Solving for rho, Initial residual = 0, Final residual = 0, No Iterations 0
time step continuity errors : sum local = 8.997347972913731e-10, global = -2.71080944635583e-10, cumulative = -1.361793438159383e-08
DILUPBiCG:  Solving for p, Initial residual = 9.785200883462391e-05, Final residual = 8.637703810764319e-13, No Iterations 4
diagonal:  Solving for rho, Initial residual = 0, Final residual = 0, No Iterations 0
time step continuity errors : sum local = 2.086669780187984e-16, global = 7.059690122572815e-17, cumulative = -1.361793431099693e-08
DILUPBiCG:  Solving for k, Initial residual = 0.009189667054995311, Final residual = 7.899392487144253e-14, No Iterations 5
ExecutionTime = 905.64 s  ClockTime = 5412 s

ORIG_COMP_STEP = 7.748712616000375
ORIG_IO_STEP = 39.34854563699992
Courant Number mean: 2.399503641655697e-06 max: 0.199472250781477
deltaT = 2.763510659704749e-06
Time = 0.000181571

PIMPLE: iteration 1
diagonal:  Solving for rho, Initial residual = 0, Final residual = 0, No Iterations 0
DILUPBiCG:  Solving for Ux, Initial residual = 0.01578101869982857, Final residual = 7.415522343157137e-14, No Iterations 5
DILUPBiCG:  Solving for Uy, Initial residual = 0.01578055443231152, Final residual = 2.399984316516017e-13, No Iterations 5
DILUPBiCG:  Solving for Uz, Initial residual = 0.007826487270037867, Final residual = 1.944492940022885e-13, No Iterations 5
DILUPBiCG:  Solving for e, Initial residual = 0.01124212462702807, Final residual = 3.237248264494099e-13, No Iterations 4
DILUPBiCG:  Solving for p, Initial residual = 0.01458816817070141, Final residual = 2.09096072917966e-05, No Iterations 1
diagonal:  Solving for rho, Initial residual = 0, Final residual = 0, No Iterations 0
time step continuity errors : sum local = 9.132434932687669e-10, global = -2.748776638455854e-10, cumulative = -1.389281197484251e-08
DILUPBiCG:  Solving for p, Initial residual = 0.0001014401414082942, Final residual = 1.554279583722211e-14, No Iterations 5
diagonal:  Solving for rho, Initial residual = 0, Final residual = 0, No Iterations 0
time step continuity errors : sum local = 1.637642328168338e-16, global = 1.772142274658306e-17, cumulative = -1.389281195712109e-08
DILUPBiCG:  Solving for k, Initial residual = 0.009177250181029946, Final residual = 2.015401965411333e-14, No Iterations 5
ExecutionTime = 908.87 s  ClockTime = 5462 s

ORIG_COMP_STEP = 2.898978700999578
ORIG_IO_STEP = 42.22108753199973
Courant Number mean: 2.461568856148607e-06 max: 0.1990696508154875
deltaT = 2.77642588750624e-06
Time = 0.000184347

PIMPLE: iteration 1
diagonal:  Solving for rho, Initial residual = 0, Final residual = 0, No Iterations 0
DILUPBiCG:  Solving for Ux, Initial residual = 0.01565976555126735, Final residual = 7.180793783179484e-14, No Iterations 5
DILUPBiCG:  Solving for Uy, Initial residual = 0.01565956388109511, Final residual = 2.4998324086408e-13, No Iterations 5
DILUPBiCG:  Solving for Uz, Initial residual = 0.007787949533023857, Final residual = 1.927279081439053e-13, No Iterations 5
DILUPBiCG:  Solving for e, Initial residual = 0.01121655340384538, Final residual = 3.255379241850069e-13, No Iterations 4
DILUPBiCG:  Solving for p, Initial residual = 0.0145204690245593, Final residual = 2.115194710738826e-05, No Iterations 1
diagonal:  Solving for rho, Initial residual = 0, Final residual = 0, No Iterations 0
time step continuity errors : sum local = 9.394651148768335e-10, global = -2.864691296236091e-10, cumulative = -1.41792810867447e-08
DILUPBiCG:  Solving for p, Initial residual = 0.0001003085476509737, Final residual = 8.735960585291055e-15, No Iterations 5
diagonal:  Solving for rho, Initial residual = 0, Final residual = 0, No Iterations 0
time step continuity errors : sum local = 1.687911051913259e-16, global = 6.689333228859463e-17, cumulative = -1.417928101985136e-08
DILUPBiCG:  Solving for k, Initial residual = 0.009160990430308354, Final residual = 2.536004728587072e-14, No Iterations 5
ExecutionTime = 917.02 s  ClockTime = 5519 s

ORIG_COMP_STEP = 7.813843728999927
ORIG_IO_STEP = 39.63523170799999
Courant Number mean: 2.529861217619377e-06 max: 0.1984621148713698
deltaT = 2.797940442492739e-06
Time = 0.000187145

PIMPLE: iteration 1
diagonal:  Solving for rho, Initial residual = 0, Final residual = 0, No Iterations 0
DILUPBiCG:  Solving for Ux, Initial residual = 0.015621014607985, Final residual = 7.17601983043345e-14, No Iterations 5
DILUPBiCG:  Solving for Uy, Initial residual = 0.0156208149439777, Final residual = 2.683088715406231e-13, No Iterations 5
DILUPBiCG:  Solving for Uz, Initial residual = 0.007790743550445889, Final residual = 1.931572410418329e-13, No Iterations 5
DILUPBiCG:  Solving for e, Initial residual = 0.01124806296329475, Final residual = 1.843060221986158e-14, No Iterations 5
DILUPBiCG:  Solving for p, Initial residual = 0.01462978472239264, Final residual = 2.132484603679579e-05, No Iterations 1
diagonal:  Solving for rho, Initial residual = 0, Final residual = 0, No Iterations 0
time step continuity errors : sum local = 9.630511140635705e-10, global = -2.932394590589784e-10, cumulative = -1.447252047891034e-08
DILUPBiCG:  Solving for p, Initial residual = 9.923690803977034e-05, Final residual = 9.392269747962251e-15, No Iterations 5
diagonal:  Solving for rho, Initial residual = 0, Final residual = 0, No Iterations 0
time step continuity errors : sum local = 1.824385598027369e-16, global = -9.6269683495935e-17, cumulative = -1.447252057518003e-08
DILUPBiCG:  Solving for k, Initial residual = 0.009179770477050741, Final residual = 2.238542321033782e-14, No Iterations 5
ExecutionTime = 921.75 s  ClockTime = 5569 s

ORIG_COMP_STEP = 4.389803371999733
ORIG_IO_STEP = 39.52626944799977
Courant Number mean: 2.60755074641308e-06 max: 0.2007292911939263
deltaT = 2.787774943906529e-06
Time = 0.000189933

PIMPLE: iteration 1
diagonal:  Solving for rho, Initial residual = 0, Final residual = 0, No Iterations 0
DILUPBiCG:  Solving for Ux, Initial residual = 0.0154500805019658, Final residual = 6.80185941844766e-14, No Iterations 5
DILUPBiCG:  Solving for Uy, Initial residual = 0.01544962610297966, Final residual = 2.704267611125557e-13, No Iterations 5
DILUPBiCG:  Solving for Uz, Initial residual = 0.007700139580897871, Final residual = 1.836091466916777e-13, No Iterations 5
DILUPBiCG:  Solving for e, Initial residual = 0.01123420334800027, Final residual = 1.802259350623882e-14, No Iterations 5
DILUPBiCG:  Solving for p, Initial residual = 0.01452892294011825, Final residual = 2.021273416141857e-05, No Iterations 1
diagonal:  Solving for rho, Initial residual = 0, Final residual = 0, No Iterations 0
time step continuity errors : sum local = 9.280087872404607e-10, global = -2.669953537570312e-10, cumulative = -1.473951592893706e-08
DILUPBiCG:  Solving for p, Initial residual = 0.0001009439928731447, Final residual = 1.485351555335815e-14, No Iterations 5
diagonal:  Solving for rho, Initial residual = 0, Final residual = 0, No Iterations 0
time step continuity errors : sum local = 1.65919706926525e-16, global = 4.449064362194346e-17, cumulative = -1.473951588444641e-08
DILUPBiCG:  Solving for k, Initial residual = 0.009120968292177383, Final residual = 6.769359194189657e-15, No Iterations 5
ExecutionTime = 928.84 s  ClockTime = 5620 s

ORIG_COMP_STEP = 6.802932198000235
ORIG_IO_STEP = 39.15690727200035
Courant Number mean: 2.656078799997108e-06 max: 0.2018816363054013
deltaT = 2.761791508058951e-06
Time = 0.000192695

PIMPLE: iteration 1
diagonal:  Solving for rho, Initial residual = 0, Final residual = 0, No Iterations 0
DILUPBiCG:  Solving for Ux, Initial residual = 0.01520702993378544, Final residual = 6.216327919853663e-14, No Iterations 5
DILUPBiCG:  Solving for Uy, Initial residual = 0.01520669830126822, Final residual = 2.570410509890315e-13, No Iterations 5
DILUPBiCG:  Solving for Uz, Initial residual = 0.007564555470291297, Final residual = 1.677232900513021e-13, No Iterations 5
DILUPBiCG:  Solving for e, Initial residual = 0.01109853671227276, Final residual = 4.06636990863873e-14, No Iterations 5
DILUPBiCG:  Solving for p, Initial residual = 0.01439650043260168, Final residual = 1.928693933803925e-05, No Iterations 1
diagonal:  Solving for rho, Initial residual = 0, Final residual = 0, No Iterations 0
time step continuity errors : sum local = 8.999417647876729e-10, global = -2.565310703348127e-10, cumulative = -1.499604695478122e-08
DILUPBiCG:  Solving for p, Initial residual = 9.394728834626841e-05, Final residual = 1.166609018559552e-14, No Iterations 5
diagonal:  Solving for rho, Initial residual = 0, Final residual = 0, No Iterations 0
time step continuity errors : sum local = 1.848977671487647e-16, global = -1.076154919875991e-16, cumulative = -1.499604706239672e-08
DILUPBiCG:  Solving for k, Initial residual = 0.009041982885212728, Final residual = 1.220439593337611e-14, No Iterations 5
ExecutionTime = 942.64 s  ClockTime = 5675 s

ORIG_COMP_STEP = 13.57282123000005
ORIG_IO_STEP = 42.27668860099948
Courant Number mean: 2.687674569064416e-06 max: 0.2016290343176919
deltaT = 2.739477989769456e-06
Time = 0.000195434

PIMPLE: iteration 1
diagonal:  Solving for rho, Initial residual = 0, Final residual = 0, No Iterations 0
DILUPBiCG:  Solving for Ux, Initial residual = 0.01496848510309679, Final residual = 5.752047577240886e-14, No Iterations 5
DILUPBiCG:  Solving for Uy, Initial residual = 0.01496825852590796, Final residual = 2.405701027242714e-13, No Iterations 5
DILUPBiCG:  Solving for Uz, Initial residual = 0.007422075072520868, Final residual = 1.533135525046149e-13, No Iterations 5
DILUPBiCG:  Solving for e, Initial residual = 0.01099301154210256, Final residual = 1.683894189411989e-14, No Iterations 5
DILUPBiCG:  Solving for p, Initial residual = 0.01416328016139398, Final residual = 1.830607572637627e-05, No Iterations 1
diagonal:  Solving for rho, Initial residual = 0, Final residual = 0, No Iterations 0
time step continuity errors : sum local = 8.67935034502495e-10, global = -2.479191981561524e-10, cumulative = -1.524396626055287e-08
DILUPBiCG:  Solving for p, Initial residual = 9.877751422453431e-05, Final residual = 9.538571880131763e-15, No Iterations 5
diagonal:  Solving for rho, Initial residual = 0, Final residual = 0, No Iterations 0
time step continuity errors : sum local = 1.69394345599135e-16, global = -6.46666487564167e-17, cumulative = -1.524396632521952e-08
DILUPBiCG:  Solving for k, Initial residual = 0.00898712288221269, Final residual = 5.450767268955597e-14, No Iterations 5
ExecutionTime = 956.02 s  ClockTime = 5733 s

ORIG_COMP_STEP = 13.11407007399976
ORIG_IO_STEP = 38.10132342199995
Courant Number mean: 2.721122274943642e-06 max: 0.2007890414089759
deltaT = 2.728712653385853e-06
Time = 0.000198163

PIMPLE: iteration 1
diagonal:  Solving for rho, Initial residual = 0, Final residual = 0, No Iterations 0
DILUPBiCG:  Solving for Ux, Initial residual = 0.0147790232970354, Final residual = 5.527398156450988e-14, No Iterations 5
DILUPBiCG:  Solving for Uy, Initial residual = 0.01477933739248802, Final residual = 2.286842651335261e-13, No Iterations 5
DILUPBiCG:  Solving for Uz, Initial residual = 0.007325349861825483, Final residual = 1.442052054602388e-13, No Iterations 5
DILUPBiCG:  Solving for e, Initial residual = 0.01087751122492905, Final residual = 1.491062065071629e-14, No Iterations 5
DILUPBiCG:  Solving for p, Initial residual = 0.01402152748701454, Final residual = 1.789261566049503e-05, No Iterations 1
diagonal:  Solving for rho, Initial residual = 0, Final residual = 0, No Iterations 0
time step continuity errors : sum local = 8.619537861198753e-10, global = -2.497417179622973e-10, cumulative = -1.549370804318181e-08
DILUPBiCG:  Solving for p, Initial residual = 9.124446867285307e-05, Final residual = 1.894076422253692e-14, No Iterations 5
diagonal:  Solving for rho, Initial residual = 0, Final residual = 0, No Iterations 0
time step continuity errors : sum local = 1.606344840293816e-16, global = 2.297444374560294e-17, cumulative = -1.549370802020737e-08
DILUPBiCG:  Solving for k, Initial residual = 0.008970870650213543, Final residual = 2.134415131051148e-13, No Iterations 5
ExecutionTime = 969.79 s  ClockTime = 5786 s

ORIG_COMP_STEP = 13.52283199299927
ORIG_IO_STEP = 40.61900407999929
Courant Number mean: 2.765884446995826e-06 max: 0.2003308668193873
deltaT = 2.724205906667363e-06
Time = 0.000200887

PIMPLE: iteration 1
diagonal:  Solving for rho, Initial residual = 0, Final residual = 0, No Iterations 0
DILUPBiCG:  Solving for Ux, Initial residual = 0.01464954558267052, Final residual = 5.409852977695938e-14, No Iterations 5
DILUPBiCG:  Solving for Uy, Initial residual = 0.01464998834605117, Final residual = 2.213637216790602e-13, No Iterations 5
DILUPBiCG:  Solving for Uz, Initial residual = 0.007273336328298091, Final residual = 1.385530171520975e-13, No Iterations 5
DILUPBiCG:  Solving for e, Initial residual = 0.01085491643640672, Final residual = 1.493812538605305e-14, No Iterations 5
DILUPBiCG:  Solving for p, Initial residual = 0.01395482475921243, Final residual = 1.77314285592742e-05, No Iterations 1
diagonal:  Solving for rho, Initial residual = 0, Final residual = 0, No Iterations 0
time step continuity errors : sum local = 8.678335148663925e-10, global = -2.525752496358198e-10, cumulative = -1.574628326984319e-08
DILUPBiCG:  Solving for p, Initial residual = 9.044150237660241e-05, Final residual = 8.882807461832242e-15, No Iterations 5
diagonal:  Solving for rho, Initial residual = 0, Final residual = 0, No Iterations 0
time step continuity errors : sum local = 1.777867417317199e-16, global = -9.16242505302232e-17, cumulative = -1.574628336146744e-08
DILUPBiCG:  Solving for k, Initial residual = 0.008982129799085619, Final residual = 1.064170922888766e-13, No Iterations 5
ExecutionTime = 983.26 s  ClockTime = 5842 s

ORIG_COMP_STEP = 13.21124930900078
ORIG_IO_STEP = 36.73405795099916
End

ORIG_IO_TIME = 3880.826856729444
ORIG_COMP_TIME = 432.9625229030459
Finalising parallel run
/*---------------------------------------------------------------------------*\
| =========                 |                                                 |
| \\      /  F ield         | OpenFOAM: The Open Source CFD Toolbox           |
|  \\    /   O peration     | Version:  v1912                                 |
|   \\  /    A nd           | Website:  www.openfoam.com                      |
|    \\/     M anipulation  |                                                 |
\*---------------------------------------------------------------------------*/
Build  : _f3950763fe-20191219 OPENFOAM=1912
Arch   : "LSB;label=32;scalar=64"
Exec   : rhoPimpleFoam_METRICS -parallel
Date   : Oct 28 2020
Time   : 13:46:14
Host   : r42c4t1n2
PID    : 191011
I/O    : uncollated
Case   : /lustre/cray/ws9/2/ws/hpcmcast-ashee2/HAWK/apio_64M/2048
nProcs : 2048
Hosts  :
(
    (r42c4t1n2 128)
    (r42c4t1n3 128)
    (r42c4t1n4 128)
    (r42c4t2n1 128)
    (r42c4t2n2 128)
    (r42c4t2n3 128)
    (r42c4t2n4 128)
    (r42c4t3n1 128)
    (r42c4t3n3 128)
    (r42c4t3n4 128)
    (r42c4t4n1 128)
    (r42c4t4n2 128)
    (r42c4t4n3 128)
    (r43c2t3n2 128)
    (r43c2t3n3 128)
    (r43c2t3n4 128)
)
Pstream initialized with:
    floatTransfer      : 0
    nProcsSimpleSum    : 0
    commsType          : nonBlocking
    polling iterations : 0
trapFpe: Floating point exception trapping enabled (FOAM_SIGFPE).
fileModificationChecking : Monitoring run-time modified files using timeStampMaster (fileModificationSkew 10)
allowSystemOperations : Allowing user-supplied system call operations

// * * * * * * * * * * * * * * * * * * * * * * * * * * * * * * * * * * * * * //
