/*---------------------------------------------------------------------------*\
| =========                 |                                                 |
| \\      /  F ield         | OpenFOAM: The Open Source CFD Toolbox           |
|  \\    /   O peration     | Version:  v1912                                 |
|   \\  /    A nd           | Website:  www.openfoam.com                      |
|    \\/     M anipulation  |                                                 |
\*---------------------------------------------------------------------------*/
Build  : _f3950763fe-20191219 OPENFOAM=1912
Arch   : "LSB;label=32;scalar=64"
Exec   : rhoPimpleAPIO_METRICS -parallel
Date   : Oct 27 2020
Time   : 15:08:15
Host   : r43c3t2n2
PID    : 91723
I/O    : uncollated
Case   : /lustre/cray/ws9/2/ws/hpcmcast-ashee2/HAWK/apio_128M/1024
nProcs : 1024
Hosts  :
(
    (r43c3t2n2 128)
    (r43c3t2n3 128)
    (r43c3t2n4 128)
    (r43c3t3n1 128)
    (r43c3t3n2 128)
    (r43c3t3n3 128)
    (r43c3t3n4 128)
    (r44c1t5n4 128)
)
Pstream initialized with:
    floatTransfer      : 0
    nProcsSimpleSum    : 0
    commsType          : nonBlocking
    polling iterations : 0
trapFpe: Floating point exception trapping enabled (FOAM_SIGFPE).
fileModificationChecking : Monitoring run-time modified files using timeStampMaster (fileModificationSkew 10)
allowSystemOperations : Allowing user-supplied system call operations

// * * * * * * * * * * * * * * * * * * * * * * * * * * * * * * * * * * * * * //
Create time

Create mesh for time = 0


PIMPLE: Operating solver in PISO mode

Reading thermophysical properties

Selecting thermodynamics package 
{
    type            hePsiThermo;
    mixture         pureMixture;
    transport       const;
    thermo          eConst;
    equationOfState perfectGas;
    specie          specie;
    energy          sensibleInternalEnergy;
}

Reading field U

Reading/calculating face flux field phi

--> FOAM Warning : 
    From function Foam::pressureControl::pressureControl(const volScalarField&, const volScalarField&, const Foam::dictionary&, bool)
    in file cfdTools/general/pressureControl/pressureControl.C at line 123
    Reading "/lustre/cray/ws9/2/ws/hpcmcast-ashee2/HAWK/apio_128M/1024/system/fvSolution.PIMPLE"
    'rhoMax' specified rather than 'pMax' or 'pMaxFactor'
    This is supported for backward-compatibility but 'pMax' or 'pMaxFactor' are more reliable.
--> FOAM Warning : 
    From function Foam::pressureControl::pressureControl(const volScalarField&, const volScalarField&, const Foam::dictionary&, bool)
    in file cfdTools/general/pressureControl/pressureControl.C at line 178
    Reading "/lustre/cray/ws9/2/ws/hpcmcast-ashee2/HAWK/apio_128M/1024/system/fvSolution.PIMPLE"
    'rhoMin' specified rather than 'pMin' or 'pMinFactor'
    This is supported for backward-compatibility but 'pMin' or 'pMinFactor' are more reliable.
pressureControl
    pMax 1726187.557059955
    pMin 4747.015781914877

Creating turbulence model

Selecting turbulence model type LES
Selecting LES turbulence model kEqn
Selecting LES delta type cubeRootVol
LES
{
    LESModel        kEqn;
    turbulence      on;
    printCoeffs     on;
    delta           cubeRootVol;
    cubeRootVolCoeffs
    {
        deltaCoeff      1;
    }
    PrandtlCoeffs
    {
        delta           cubeRootVol;
        cubeRootVolCoeffs
        {
            deltaCoeff      1;
        }
        smoothCoeffs
        {
            delta           cubeRootVol;
            cubeRootVolCoeffs
            {
                deltaCoeff      1;
            }
            maxDeltaRatio   1.1;
        }
        Cdelta          0.158;
    }
    vanDriestCoeffs
    {
        delta           cubeRootVol;
        cubeRootVolCoeffs
        {
            deltaCoeff      1;
        }
        smoothCoeffs
        {
            delta           cubeRootVol;
            cubeRootVolCoeffs
            {
                deltaCoeff      1;
            }
            maxDeltaRatio   1.1;
        }
        Aplus           26;
        Cdelta          0.158;
    }
    smoothCoeffs
    {
        delta           cubeRootVol;
        cubeRootVolCoeffs
        {
            deltaCoeff      1;
        }
        maxDeltaRatio   1.1;
    }
    Ce              1.048;
    Ck              0.094;
}

Creating field dpdt

Creating field kinetic energy K

No MRF models present

APIO_procNo = 52
APIO_procNo = 53
APIO_procNo = 54
APIO_procNo = 55
APIO_procNo = 56
APIO_procNo = 57
APIO_procNo = 58
APIO_procNo = 59
APIO_procNo = 60
APIO_procNo = 61
APIO_procNo = 62
APIO_procNo = 63
APIO_procNo = 64
APIO_procNo = 65
APIO_procNo = 66
APIO_procNo = 67
APIO_procNo = 68
APIO_procNo = 69
APIO_procNo = 70
APIO_procNo = 71
APIO_procNo = 72
APIO_procNo = 73
APIO_procNo = 74
APIO_procNo = 75
APIO_procNo = 76
APIO_procNo = 77
APIO_procNo = 78
APIO_procNo = 79
APIO_procNo = 80
APIO_procNo = 81
APIO_procNo = 82
APIO_procNo = 83
APIO_procNo = 84
APIO_procNo = 85
APIO_procNo = 86
APIO_procNo = 87
APIO_procNo = 88
APIO_procNo = 89
APIO_procNo = 90
APIO_procNo = 91
APIO_procNo = 92
APIO_procNo = 93
APIO_procNo = 94
APIO_procNo = 95
APIO_procNo = 96
APIO_procNo = 97
APIO_procNo = 98
APIO_procNo = 99
APIO_procNo = 100
APIO_procNo = 101
APIO_procNo = 102
APIO_procNo = 103
APIO_procNo = 104
APIO_procNo = 105
APIO_procNo = 106
APIO_procNo = 107
APIO_procNo = 108
APIO_procNo = 109
APIO_procNo = 110
APIO_procNo = 111
APIO_procNo = 112
APIO_procNo = 113
APIO_procNo = 114
APIO_procNo = 115
APIO_procNo = 116
APIO_procNo = 117
APIO_procNo = 118
APIO_procNo = 119
APIO_procNo = 120
writeThread 120 on CPU 248
APIO_procNo = 121
writeThread 121 on CPU 249
APIO_procNo = 122
APIO_procNo = 123
writeThread 123 on CPU 251
APIO_procNo = 124
APIO_procNo = 125
APIO_procNo = 126
APIO_procNo = 127
No finite volume options present
APIO_procNo = 0
APIO_masterNo = 0
APIO_procNo = 1
APIO_procNo = 2
APIO_procNo = 3
APIO_procNo = 4
APIO_procNo = 5
APIO_procNo = 6
APIO_procNo = 7
APIO_procNo = 8
APIO_procNo = 9
APIO_procNo = 10
APIO_procNo = 11
APIO_procNo = 12
APIO_procNo = 13
APIO_procNo = 14
APIO_procNo = 15
APIO_procNo = 16
writeThread 16 on CPU 144
APIO_procNo = 17
writeThread 17 on CPU 145
APIO_procNo = 18
writeThread 18 on CPU 146
APIO_procNo = 19
writeThread 19 on CPU 147
APIO_procNo = 20
writeThread 20 on CPU 148
APIO_procNo = 21
writeThread 21 on CPU 149
APIO_procNo = 22
writeThread 22 on CPU 150
APIO_procNo = 23
writeThread 23 on CPU 151
APIO_procNo = 24
writeThread 24 on CPU 152
APIO_procNo = 25
writeThread 25 on CPU 153
APIO_procNo = 26
writeThread 26 on CPU 154
APIO_procNo = 27
writeThread 27 on CPU 155
APIO_procNo = 28
APIO_procNo = 29
APIO_procNo = 30
writeThread 30 on CPU 158
APIO_procNo = 31
writeThread 31 on CPU 159
APIO_procNo = 32
APIO_procNo = 33
APIO_procNo = 34
APIO_procNo = 35
APIO_procNo = 36
APIO_procNo = 37
APIO_procNo = 38
APIO_procNo = 39
APIO_procNo = 40
APIO_procNo = 41
APIO_procNo = 42
APIO_procNo = 43
APIO_procNo = 44
APIO_procNo = 45
APIO_procNo = 46
APIO_procNo = 47
APIO_procNo = 48
writeThread 48 on CPU 176
APIO_procNo = 49
writeThread 49 on CPU 177
APIO_procNo = 50
writeThread 50 on CPU 178
APIO_procNo = 51
writeThread 51 on CPU 179
writeThread 0 on CPU 128
writeThread 1 on CPU 129
writeThread 2 on CPU 130
writeThread 3 on CPU 131
writeThread 4 on CPU 132
writeThread 5 on CPU 133
writeThread 6 on CPU 134
writeThread 7 on CPU 135
writeThread 8 on CPU 136
writeThread 9 on CPU 137
writeThread 10 on CPU 138
writeThread 11 on CPU 139
writeThread 12 on CPU 140
writeThread 13 on CPU 141
writeThread 14 on CPU 142
writeThread 15 on CPU 143
writeThread 28 on CPU 156
writeThread 29 on CPU 157
writeThread 32 on CPU 160
writeThread 33 on CPU 161
writeThread 34 on CPU 162
writeThread 35 on CPU 163
writeThread 36 on CPU 164
writeThread 37 on CPU 165
writeThread 38 on CPU 166
writeThread 39 on CPU 167
writeThread 40 on CPU 168
writeThread 41 on CPU 169
writeThread 42 on CPU 170
writeThread 43 on CPU 171
writeThread 44 on CPU 172
writeThread 45 on CPU 173
writeThread 46 on CPU 174
writeThread 47 on CPU 175
writeThread 127 on CPU 255
writeThread 52 on CPU 180
writeThread 53 on CPU 181
writeThread 54 on CPU 182
writeThread 55 on CPU 183
writeThread 56 on CPU 184
writeThread 57 on CPU 185
writeThread 58 on CPU 186
writeThread 59 on CPU 187
writeThread 60 on CPU 188
writeThread 61 on CPU 189
writeThread 62 on CPU 190
writeThread 63 on CPU 191
writeThread 64 on CPU 192
writeThread 65 on CPU 193
writeThread 66 on CPU 194
writeThread 67 on CPU 195
writeThread 68 on CPU 196
writeThread 69 on CPU 197
writeThread 70 on CPU 198
writeThread 71 on CPU 199
writeThread 72 on CPU 200
writeThread 73 on CPU 201
writeThread 74 on CPU 202
writeThread 75 on CPU 203
writeThread 76 on CPU 204
writeThread 77 on CPU 205
writeThread 78 on CPU 206
writeThread 79 on CPU 207
writeThread 80 on CPU 208
writeThread 81 on CPU 209
writeThread 82 on CPU 210
writeThread 83 on CPU 211
writeThread 84 on CPU 212
writeThread 85 on CPU 213
writeThread 86 on CPU 214
writeThread 87 on CPU 215
writeThread 88 on CPU 216
writeThread 89 on CPU 217
writeThread 90 on CPU 218
writeThread 91 on CPU 219
writeThread 92 on CPU 220
writeThread 93 on CPU 221
writeThread 94 on CPU 222
writeThread 95 on CPU 223
writeThread 96 on CPU 224
writeThread 97 on CPU 225
writeThread 98 on CPU 226
writeThread 99 on CPU 227
writeThread 100 on CPU 228
writeThread 101 on CPU 229
writeThread 102 on CPU 230
writeThread 103 on CPU 231
writeThread 104 on CPU 232
writeThread 105 on CPU 233
writeThread 106 on CPU 234
writeThread 107 on CPU 235
writeThread 108 on CPU 236
writeThread 109 on CPU 237
writeThread 110 on CPU 238
writeThread 111 on CPU 239
writeThread 112 on CPU 240
writeThread 113 on CPU 241
writeThread 114 on CPU 242
writeThread 115 on CPU 243
writeThread 116 on CPU 244
writeThread 117 on CPU 245
writeThread 118 on CPU 246
writeThread 119 on CPU 247
writeThread 122 on CPU 250
writeThread 124 on CPU 252
writeThread 125 on CPU 253
writeThread 126 on CPU 254
APIO_procNo = 896
APIO_procNo = 256
writeThread 256 on CPU 128
APIO_procNo = 640
APIO_procNo = 512
APIO_procNo = 128
APIO_procNo = 897
APIO_procNo = 257
APIO_procNo = 384
APIO_procNo = 641
APIO_procNo = 768
APIO_procNo = 513
APIO_procNo = 898
APIO_procNo = 258
APIO_procNo = 385
writeThread 385 on CPU 129
APIO_procNo = 642
APIO_procNo = 769
APIO_procNo = 514
APIO_procNo = 129
APIO_procNo = 899
APIO_procNo = 259
APIO_procNo = 386
writeThread 386 on CPU 130
APIO_procNo = 643
APIO_procNo = 770
APIO_procNo = 515
APIO_procNo = 130
APIO_procNo = 900
APIO_procNo = 260
APIO_procNo = 387
writeThread 387 on CPU 131
APIO_procNo = 644
APIO_procNo = 771
APIO_procNo = 516
APIO_procNo = 131
APIO_procNo = 901
APIO_procNo = 261
APIO_procNo = 388
writeThread 388 on CPU 132
APIO_procNo = 645
APIO_procNo = 772
APIO_procNo = 517
APIO_procNo = 132
APIO_procNo = 902
APIO_procNo = 262
APIO_procNo = 389
writeThread 389 on CPU 133
APIO_procNo = 646
APIO_procNo = 773
APIO_procNo = 518
APIO_procNo = 133
APIO_procNo = 903
APIO_procNo = 263
APIO_procNo = 390
writeThread 390 on CPU 134
APIO_procNo = 647
APIO_procNo = 774
APIO_procNo = 519
APIO_procNo = 134
APIO_procNo = 904
APIO_procNo = 264
APIO_procNo = 391
writeThread 391 on CPU 135
APIO_procNo = 648
APIO_procNo = 775
APIO_procNo = 520
APIO_procNo = 135
APIO_procNo = 905
APIO_procNo = 265
APIO_procNo = 392
writeThread 392 on CPU 136
APIO_procNo = 649
APIO_procNo = 776
APIO_procNo = 521
APIO_procNo = 136
APIO_procNo = 906
APIO_procNo = 393
writeThread 393 on CPU 137
APIO_procNo = 650
APIO_procNo = 777
APIO_procNo = 137
APIO_procNo = 907
APIO_procNo = 266
APIO_procNo = 394
writeThread 394 on CPU 138
APIO_procNo = 651
APIO_procNo = 778
APIO_procNo = 522
APIO_procNo = 908
APIO_procNo = 267
APIO_procNo = 395
writeThread 395 on CPU 139
APIO_procNo = 652
APIO_procNo = 523
APIO_procNo = 138
APIO_procNo = 909
APIO_procNo = 268
APIO_procNo = 396
writeThread 396 on CPU 140
APIO_procNo = 653
APIO_procNo = 779
APIO_procNo = 524
APIO_procNo = 139
APIO_procNo = 910
APIO_procNo = 269
APIO_procNo = 397
writeThread 397 on CPU 141
APIO_procNo = 654
APIO_procNo = 780
APIO_procNo = 525
APIO_procNo = 140
APIO_procNo = 911
APIO_procNo = 270
APIO_procNo = 398
writeThread 398 on CPU 142
APIO_procNo = 655
APIO_procNo = 781
APIO_procNo = 526
APIO_procNo = 141
APIO_procNo = 912
writeThread 912 on CPU 144
APIO_procNo = 271
APIO_procNo = 399
writeThread 399 on CPU 143
APIO_procNo = 656
APIO_procNo = 782
APIO_procNo = 527
APIO_procNo = 142
APIO_procNo = 913
writeThread 913 on CPU 145
APIO_procNo = 272
writeThread 272 on CPU 144
APIO_procNo = 400
writeThread 400 on CPU 144
APIO_procNo = 657
APIO_procNo = 783
APIO_procNo = 528
writeThread 528 on CPU 144
APIO_procNo = 143
APIO_procNo = 914
writeThread 914 on CPU 146
APIO_procNo = 273
writeThread 273 on CPU 145
APIO_procNo = 401
writeThread 401 on CPU 145
APIO_procNo = 658
APIO_procNo = 784
writeThread 784 on CPU 144
APIO_procNo = 529
writeThread 529 on CPU 145
APIO_procNo = 144
writeThread 144 on CPU 144
APIO_procNo = 915
writeThread 915 on CPU 147
APIO_procNo = 274
writeThread 274 on CPU 146
APIO_procNo = 402
writeThread 402 on CPU 146
APIO_procNo = 659
APIO_procNo = 785
writeThread 785 on CPU 145
APIO_procNo = 530
writeThread 530 on CPU 146
APIO_procNo = 145
APIO_procNo = 916
APIO_procNo = 275
writeThread 275 on CPU 147
APIO_procNo = 403
writeThread 403 on CPU 147
APIO_procNo = 660
writeThread 660 on CPU 148
APIO_procNo = 786
writeThread 786 on CPU 146
APIO_procNo = 531
writeThread 531 on CPU 147
APIO_procNo = 146
APIO_procNo = 917
writeThread 917 on CPU 149
APIO_procNo = 276
writeThread 276 on CPU 148
APIO_procNo = 404
writeThread 404 on CPU 148
APIO_procNo = 661
APIO_procNo = 787
writeThread 787 on CPU 147
APIO_procNo = 532
APIO_procNo = 147
writeThread 147 on CPU 147
APIO_procNo = 918
writeThread 918 on CPU 150
APIO_procNo = 277
writeThread 277 on CPU 149
APIO_procNo = 405
writeThread 405 on CPU 149
APIO_procNo = 662
writeThread 662 on CPU 150
APIO_procNo = 788
writeThread 788 on CPU 148
APIO_procNo = 533
APIO_procNo = 148
APIO_procNo = 919
writeThread 919 on CPU 151
APIO_procNo = 278
writeThread 278 on CPU 150
APIO_procNo = 406
writeThread 406 on CPU 150
APIO_procNo = 663
writeThread 663 on CPU 151
APIO_procNo = 789
writeThread 789 on CPU 149
APIO_procNo = 534
APIO_procNo = 149
APIO_procNo = 920
writeThread 920 on CPU 152
APIO_procNo = 279
writeThread 279 on CPU 151
APIO_procNo = 407
writeThread 407 on CPU 151
APIO_procNo = 664
APIO_procNo = 790
writeThread 790 on CPU 150
APIO_procNo = 535
APIO_procNo = 150
APIO_procNo = 921
writeThread 921 on CPU 153
APIO_procNo = 280
writeThread 280 on CPU 152
APIO_procNo = 408
writeThread 408 on CPU 152
APIO_procNo = 665
APIO_procNo = 791
writeThread 791 on CPU 151
APIO_procNo = 536
writeThread 536 on CPU 152
APIO_procNo = 151
APIO_procNo = 922
writeThread 922 on CPU 154
APIO_procNo = 281
writeThread 281 on CPU 153
APIO_procNo = 409
writeThread 409 on CPU 153
APIO_procNo = 666
APIO_procNo = 792
writeThread 792 on CPU 152
APIO_procNo = 537
writeThread 537 on CPU 153
APIO_procNo = 152
APIO_procNo = 923
writeThread 923 on CPU 155
APIO_procNo = 282
writeThread 282 on CPU 154
APIO_procNo = 410
writeThread 410 on CPU 154
APIO_procNo = 667
APIO_procNo = 793
writeThread 793 on CPU 153
APIO_procNo = 538
writeThread 538 on CPU 154
APIO_procNo = 153
APIO_procNo = 924
writeThread 924 on CPU 156
APIO_procNo = 283
writeThread 283 on CPU 155
APIO_procNo = 411
writeThread 411 on CPU 155
APIO_procNo = 668
writeThread 668 on CPU 156
APIO_procNo = 794
writeThread 794 on CPU 154
APIO_procNo = 539
writeThread 539 on CPU 155
APIO_procNo = 154
APIO_procNo = 925
writeThread 925 on CPU 157
APIO_procNo = 284
writeThread 284 on CPU 156
APIO_procNo = 412
writeThread 412 on CPU 156
APIO_procNo = 669
writeThread 669 on CPU 157
APIO_procNo = 795
writeThread 795 on CPU 155
APIO_procNo = 540
writeThread 540 on CPU 156
APIO_procNo = 155
APIO_procNo = 926
writeThread 926 on CPU 158
APIO_procNo = 285
writeThread 285 on CPU 157
APIO_procNo = 413
writeThread 413 on CPU 157
APIO_procNo = 670
writeThread 670 on CPU 158
APIO_procNo = 796
writeThread 796 on CPU 156
APIO_procNo = 541
writeThread 541 on CPU 157
APIO_procNo = 156
APIO_procNo = 927
writeThread 927 on CPU 159
APIO_procNo = 286
writeThread 286 on CPU 158
APIO_procNo = 414
writeThread 414 on CPU 158
APIO_procNo = 671
writeThread 671 on CPU 159
APIO_procNo = 797
writeThread 797 on CPU 157
APIO_procNo = 542
writeThread 542 on CPU 158
APIO_procNo = 157
APIO_procNo = 928
writeThread 928 on CPU 160
APIO_procNo = 287
writeThread 287 on CPU 159
APIO_procNo = 415
writeThread 415 on CPU 159
APIO_procNo = 672
APIO_procNo = 798
writeThread 798 on CPU 158
APIO_procNo = 543
writeThread 543 on CPU 159
APIO_procNo = 158
APIO_procNo = 929
writeThread 929 on CPU 161
APIO_procNo = 288
APIO_procNo = 416
writeThread 416 on CPU 160
APIO_procNo = 673
APIO_procNo = 799
writeThread 799 on CPU 159
APIO_procNo = 544
writeThread 544 on CPU 160
APIO_procNo = 159
APIO_procNo = 930
APIO_procNo = 289
APIO_procNo = 417
writeThread 417 on CPU 161
APIO_procNo = 674
APIO_procNo = 800
writeThread 800 on CPU 160
APIO_procNo = 545
writeThread 545 on CPU 161
APIO_procNo = 160
APIO_procNo = 931
writeThread 931 on CPU 163
APIO_procNo = 290
APIO_procNo = 418
writeThread 418 on CPU 162
APIO_procNo = 675
APIO_procNo = 801
writeThread 801 on CPU 161
APIO_procNo = 546
writeThread 546 on CPU 162
APIO_procNo = 161
APIO_procNo = 932
APIO_procNo = 291
APIO_procNo = 419
writeThread 419 on CPU 163
APIO_procNo = 676
APIO_procNo = 802
writeThread 802 on CPU 162
APIO_procNo = 547
writeThread 547 on CPU 163
APIO_procNo = 162
APIO_procNo = 933
APIO_procNo = 292
APIO_procNo = 420
writeThread 420 on CPU 164
APIO_procNo = 677
APIO_procNo = 803
writeThread 803 on CPU 163
APIO_procNo = 548
writeThread 548 on CPU 164
APIO_procNo = 163
APIO_procNo = 934
APIO_procNo = 293
APIO_procNo = 421
writeThread 421 on CPU 165
APIO_procNo = 678
APIO_procNo = 804
writeThread 804 on CPU 164
APIO_procNo = 549
writeThread 549 on CPU 165
APIO_procNo = 164
APIO_procNo = 935
APIO_procNo = 294
APIO_procNo = 422
writeThread 422 on CPU 166
APIO_procNo = 679
APIO_procNo = 805
writeThread 805 on CPU 165
APIO_procNo = 550
writeThread 550 on CPU 166
APIO_procNo = 165
APIO_procNo = 936
APIO_procNo = 295
APIO_procNo = 423
writeThread 423 on CPU 167
APIO_procNo = 680
APIO_procNo = 806
writeThread 806 on CPU 166
APIO_procNo = 551
writeThread 551 on CPU 167
APIO_procNo = 166
APIO_procNo = 937
APIO_procNo = 296
APIO_procNo = 424
writeThread 424 on CPU 168
APIO_procNo = 681
APIO_procNo = 807
writeThread 807 on CPU 167
APIO_procNo = 552
writeThread 552 on CPU 168
APIO_procNo = 167
APIO_procNo = 938
APIO_procNo = 297
APIO_procNo = 425
writeThread 425 on CPU 169
APIO_procNo = 682
APIO_procNo = 808
writeThread 808 on CPU 168
APIO_procNo = 553
writeThread 553 on CPU 169
APIO_procNo = 168
APIO_procNo = 939
APIO_procNo = 298
APIO_procNo = 426
writeThread 426 on CPU 170
APIO_procNo = 683
APIO_procNo = 809
writeThread 809 on CPU 169
APIO_procNo = 554
writeThread 554 on CPU 170
APIO_procNo = 169
APIO_procNo = 940
APIO_procNo = 299
APIO_procNo = 427
writeThread 427 on CPU 171
APIO_procNo = 684
APIO_procNo = 810
writeThread 810 on CPU 170
APIO_procNo = 555
writeThread 555 on CPU 171
APIO_procNo = 170
APIO_procNo = 941
APIO_procNo = 300
APIO_procNo = 428
writeThread 428 on CPU 172
APIO_procNo = 685
APIO_procNo = 811
writeThread 811 on CPU 171
APIO_procNo = 556
writeThread 556 on CPU 172
APIO_procNo = 171
APIO_procNo = 942
APIO_procNo = 301
APIO_procNo = 429
writeThread 429 on CPU 173
APIO_procNo = 686
APIO_procNo = 812
writeThread 812 on CPU 172
APIO_procNo = 557
writeThread 557 on CPU 173
APIO_procNo = 172
APIO_procNo = 943
APIO_procNo = 302
APIO_procNo = 430
writeThread 430 on CPU 174
APIO_procNo = 687
APIO_procNo = 813
writeThread 813 on CPU 173
APIO_procNo = 558
writeThread 558 on CPU 174
APIO_procNo = 173
APIO_procNo = 944
writeThread 944 on CPU 176
APIO_procNo = 303
APIO_procNo = 431
writeThread 431 on CPU 175
APIO_procNo = 688
APIO_procNo = 814
writeThread 814 on CPU 174
APIO_procNo = 559
writeThread 559 on CPU 175
APIO_procNo = 174
APIO_procNo = 945
writeThread 945 on CPU 177
APIO_procNo = 304
APIO_procNo = 432
writeThread 432 on CPU 176
APIO_procNo = 689
APIO_procNo = 815
writeThread 815 on CPU 175
APIO_procNo = 560
writeThread 560 on CPU 176
APIO_procNo = 175
APIO_procNo = 946
writeThread 946 on CPU 178
APIO_procNo = 305
APIO_procNo = 433
writeThread 433 on CPU 177
APIO_procNo = 690
APIO_procNo = 816
writeThread 816 on CPU 176
APIO_procNo = 561
writeThread 561 on CPU 177
APIO_procNo = 176
writeThread 176 on CPU 176
APIO_procNo = 947
writeThread 947 on CPU 179
APIO_procNo = 306
APIO_procNo = 434
writeThread 434 on CPU 178
APIO_procNo = 691
APIO_procNo = 817
writeThread 817 on CPU 177
APIO_procNo = 562
writeThread 562 on CPU 178
APIO_procNo = 177
writeThread 177 on CPU 177
APIO_procNo = 948
writeThread 948 on CPU 180
APIO_procNo = 307
APIO_procNo = 435
writeThread 435 on CPU 179
APIO_procNo = 692
APIO_procNo = 818
writeThread 818 on CPU 178
APIO_procNo = 563
writeThread 563 on CPU 179
APIO_procNo = 178
writeThread 178 on CPU 178
APIO_procNo = 949
writeThread 949 on CPU 181
APIO_procNo = 308
writeThread 308 on CPU 180
APIO_procNo = 436
writeThread 436 on CPU 180
APIO_procNo = 693
APIO_procNo = 819
writeThread 819 on CPU 179
APIO_procNo = 564
APIO_procNo = 179
writeThread 179 on CPU 179
APIO_procNo = 950
writeThread 950 on CPU 182
APIO_procNo = 309
writeThread 309 on CPU 181
APIO_procNo = 437
writeThread 437 on CPU 181
APIO_procNo = 694
APIO_procNo = 820
writeThread 820 on CPU 180
APIO_procNo = 565
APIO_procNo = 180
APIO_procNo = 951
writeThread 951 on CPU 183
APIO_procNo = 310
writeThread 310 on CPU 182
APIO_procNo = 438
writeThread 438 on CPU 182
APIO_procNo = 695
APIO_procNo = 821
writeThread 821 on CPU 181
APIO_procNo = 566
APIO_procNo = 181
APIO_procNo = 952
writeThread 952 on CPU 184
APIO_procNo = 311
writeThread 311 on CPU 183
APIO_procNo = 439
writeThread 439 on CPU 183
APIO_procNo = 696
APIO_procNo = 822
writeThread 822 on CPU 182
APIO_procNo = 567
APIO_procNo = 182
APIO_procNo = 953
writeThread 953 on CPU 185
APIO_procNo = 312
writeThread 312 on CPU 184
APIO_procNo = 440
writeThread 440 on CPU 184
APIO_procNo = 697
APIO_procNo = 823
writeThread 823 on CPU 183
APIO_procNo = 568
APIO_procNo = 183
APIO_procNo = 954
writeThread 954 on CPU 186
APIO_procNo = 313
writeThread 313 on CPU 185
APIO_procNo = 441
writeThread 441 on CPU 185
APIO_procNo = 698
APIO_procNo = 824
writeThread 824 on CPU 184
APIO_procNo = 569
writeThread 569 on CPU 185
APIO_procNo = 184
APIO_procNo = 955
writeThread 955 on CPU 187
APIO_procNo = 314
writeThread 314 on CPU 186
APIO_procNo = 442
writeThread 442 on CPU 186
APIO_procNo = 699
APIO_procNo = 825
writeThread 825 on CPU 185
APIO_procNo = 570
APIO_procNo = 185
Courant Number mean: 1.036765635763725e-11 max: 2.085039370078742e-05
APIO_procNo = 956
writeThread 956 on CPU 188
APIO_procNo = 315
writeThread 315 on CPU 187
APIO_procNo = 443
writeThread 443 on CPU 187
APIO_procNo = 700
APIO_procNo = 826
writeThread 826 on CPU 186
APIO_procNo = 571
APIO_procNo = 186
APIO_procNo = 957
writeThread 957 on CPU 189
APIO_procNo = 316
APIO_procNo = 444
writeThread 444 on CPU 188
APIO_procNo = 701
APIO_procNo = 827
writeThread 827 on CPU 187
APIO_procNo = 572
APIO_procNo = 187
APIO_procNo = 958
writeThread 958 on CPU 190
APIO_procNo = 317
APIO_procNo = 445
writeThread 445 on CPU 189
APIO_procNo = 702
APIO_procNo = 828
writeThread 828 on CPU 188
APIO_procNo = 573
APIO_procNo = 188
APIO_procNo = 959
writeThread 959 on CPU 191
APIO_procNo = 318
APIO_procNo = 446
writeThread 446 on CPU 190
APIO_procNo = 703
APIO_procNo = 829
writeThread 829 on CPU 189
APIO_procNo = 574
APIO_procNo = 189
APIO_procNo = 960
writeThread 960 on CPU 192
APIO_procNo = 319
APIO_procNo = 447
writeThread 447 on CPU 191
APIO_procNo = 704
APIO_procNo = 830
writeThread 830 on CPU 190
APIO_procNo = 575
APIO_procNo = 190
APIO_procNo = 961
writeThread 961 on CPU 193
APIO_procNo = 320
APIO_procNo = 448
writeThread 448 on CPU 192
APIO_procNo = 705
APIO_procNo = 831
writeThread 831 on CPU 191
APIO_procNo = 576
APIO_procNo = 191
APIO_procNo = 962
writeThread 962 on CPU 194
APIO_procNo = 321
APIO_procNo = 449
writeThread 449 on CPU 193
APIO_procNo = 706
APIO_procNo = 832
writeThread 832 on CPU 192
APIO_procNo = 577
APIO_procNo = 192
writeThread 192 on CPU 192
APIO_procNo = 963
writeThread 963 on CPU 195
APIO_procNo = 322
APIO_procNo = 450
writeThread 450 on CPU 194
APIO_procNo = 707
APIO_procNo = 833
writeThread 833 on CPU 193
APIO_procNo = 578
APIO_procNo = 193
writeThread 193 on CPU 193
APIO_procNo = 964
writeThread 964 on CPU 196
APIO_procNo = 323
APIO_procNo = 451
writeThread 451 on CPU 195
APIO_procNo = 708
APIO_procNo = 834
writeThread 834 on CPU 194
APIO_procNo = 579
APIO_procNo = 194
APIO_procNo = 965
writeThread 965 on CPU 197
APIO_procNo = 324
APIO_procNo = 452
writeThread 452 on CPU 196
APIO_procNo = 709
APIO_procNo = 835
writeThread 835 on CPU 195
APIO_procNo = 580
writeThread 580 on CPU 196
APIO_procNo = 195
APIO_procNo = 966
APIO_procNo = 325
APIO_procNo = 453
writeThread 453 on CPU 197
APIO_procNo = 710
APIO_procNo = 836
writeThread 836 on CPU 196
APIO_procNo = 581
writeThread 581 on CPU 197
APIO_procNo = 196
writeThread 196 on CPU 196
APIO_procNo = 967
writeThread 967 on CPU 199
APIO_procNo = 326
APIO_procNo = 454
writeThread 454 on CPU 198
APIO_procNo = 711
APIO_procNo = 837
writeThread 837 on CPU 197
APIO_procNo = 582
writeThread 582 on CPU 198
APIO_procNo = 197
writeThread 197 on CPU 197
APIO_procNo = 968
writeThread 968 on CPU 200
APIO_procNo = 327
APIO_procNo = 455
writeThread 455 on CPU 199
APIO_procNo = 712
APIO_procNo = 838
writeThread 838 on CPU 198
APIO_procNo = 583
writeThread 583 on CPU 199
APIO_procNo = 198
writeThread 198 on CPU 198
APIO_procNo = 969
writeThread 969 on CPU 201
APIO_procNo = 328
APIO_procNo = 456
writeThread 456 on CPU 200
APIO_procNo = 713
APIO_procNo = 839
writeThread 839 on CPU 199
APIO_procNo = 584
APIO_procNo = 199
writeThread 199 on CPU 199
APIO_procNo = 970
writeThread 970 on CPU 202
APIO_procNo = 329
APIO_procNo = 457
writeThread 457 on CPU 201
APIO_procNo = 714
APIO_procNo = 840
writeThread 840 on CPU 200
APIO_procNo = 585
writeThread 585 on CPU 201
APIO_procNo = 200
writeThread 200 on CPU 200
APIO_procNo = 971
writeThread 971 on CPU 203
APIO_procNo = 330
APIO_procNo = 458
writeThread 458 on CPU 202
APIO_procNo = 715
APIO_procNo = 841
writeThread 841 on CPU 201
APIO_procNo = 586
writeThread 586 on CPU 202
APIO_procNo = 201
writeThread 201 on CPU 201
APIO_procNo = 972
writeThread 972 on CPU 204
APIO_procNo = 331
APIO_procNo = 459
writeThread 459 on CPU 203
APIO_procNo = 716
APIO_procNo = 842
writeThread 842 on CPU 202
APIO_procNo = 587
writeThread 587 on CPU 203
APIO_procNo = 202
writeThread 202 on CPU 202
APIO_procNo = 973
writeThread 973 on CPU 205
APIO_procNo = 332
APIO_procNo = 460
writeThread 460 on CPU 204
APIO_procNo = 717
APIO_procNo = 843
writeThread 843 on CPU 203
APIO_procNo = 588
writeThread 588 on CPU 204
APIO_procNo = 203
writeThread 203 on CPU 203
APIO_procNo = 974
writeThread 974 on CPU 206
APIO_procNo = 333
APIO_procNo = 461
writeThread 461 on CPU 205
APIO_procNo = 718
APIO_procNo = 844
writeThread 844 on CPU 204
APIO_procNo = 589
writeThread 589 on CPU 205
APIO_procNo = 204
writeThread 204 on CPU 204
APIO_procNo = 975
writeThread 975 on CPU 207
APIO_procNo = 334
APIO_procNo = 462
writeThread 462 on CPU 206
APIO_procNo = 719
APIO_procNo = 845
writeThread 845 on CPU 205
APIO_procNo = 590
writeThread 590 on CPU 206
APIO_procNo = 205
writeThread 205 on CPU 205
APIO_procNo = 976
writeThread 976 on CPU 208
APIO_procNo = 335
APIO_procNo = 463
writeThread 463 on CPU 207
APIO_procNo = 720
APIO_procNo = 846
writeThread 846 on CPU 206
APIO_procNo = 591
writeThread 591 on CPU 207
APIO_procNo = 206
writeThread 206 on CPU 206
APIO_procNo = 977
writeThread 977 on CPU 209
APIO_procNo = 336
writeThread 336 on CPU 208
APIO_procNo = 464
writeThread 464 on CPU 208
APIO_procNo = 721
APIO_procNo = 847
writeThread 847 on CPU 207
APIO_procNo = 592
writeThread 592 on CPU 208
APIO_procNo = 207
writeThread 207 on CPU 207
APIO_procNo = 978
writeThread 978 on CPU 210
APIO_procNo = 337
APIO_procNo = 465
writeThread 465 on CPU 209
APIO_procNo = 722
APIO_procNo = 848
writeThread 848 on CPU 208
APIO_procNo = 593
writeThread 593 on CPU 209
APIO_procNo = 208
APIO_procNo = 979
writeThread 979 on CPU 211
APIO_procNo = 338
writeThread 338 on CPU 210
APIO_procNo = 466
writeThread 466 on CPU 210
APIO_procNo = 723
APIO_procNo = 849
writeThread 849 on CPU 209
APIO_procNo = 594
writeThread 594 on CPU 210
APIO_procNo = 209
APIO_procNo = 980
writeThread 980 on CPU 212
APIO_procNo = 339
writeThread 339 on CPU 211
APIO_procNo = 467
writeThread 467 on CPU 211
APIO_procNo = 724
APIO_procNo = 850
writeThread 850 on CPU 210
APIO_procNo = 595
writeThread 595 on CPU 211
APIO_procNo = 210
APIO_procNo = 981
writeThread 981 on CPU 213
APIO_procNo = 340
APIO_procNo = 468
writeThread 468 on CPU 212
APIO_procNo = 725
APIO_procNo = 851
writeThread 851 on CPU 211
APIO_procNo = 596
writeThread 596 on CPU 212
APIO_procNo = 211
APIO_procNo = 982
writeThread 982 on CPU 214
APIO_procNo = 341
APIO_procNo = 469
writeThread 469 on CPU 213
APIO_procNo = 726
APIO_procNo = 852
writeThread 852 on CPU 212
APIO_procNo = 597
writeThread 597 on CPU 213
APIO_procNo = 212
APIO_procNo = 983
writeThread 983 on CPU 215
APIO_procNo = 342
APIO_procNo = 470
writeThread 470 on CPU 214
APIO_procNo = 727
APIO_procNo = 853
writeThread 853 on CPU 213
APIO_procNo = 598
writeThread 598 on CPU 214
APIO_procNo = 213
APIO_procNo = 984
writeThread 984 on CPU 216
APIO_procNo = 343
APIO_procNo = 471
writeThread 471 on CPU 215
APIO_procNo = 728
APIO_procNo = 854
writeThread 854 on CPU 214
APIO_procNo = 599
writeThread 599 on CPU 215
APIO_procNo = 214
APIO_procNo = 985
writeThread 985 on CPU 217
APIO_procNo = 344
APIO_procNo = 472
writeThread 472 on CPU 216
APIO_procNo = 729
APIO_procNo = 855
writeThread 855 on CPU 215
APIO_procNo = 600
writeThread 600 on CPU 216
APIO_procNo = 215
APIO_procNo = 986
writeThread 986 on CPU 218
APIO_procNo = 345
APIO_procNo = 473
writeThread 473 on CPU 217
APIO_procNo = 730
APIO_procNo = 856
writeThread 856 on CPU 216
APIO_procNo = 601
writeThread 601 on CPU 217
APIO_procNo = 216
APIO_procNo = 987
writeThread 987 on CPU 219
APIO_procNo = 346
APIO_procNo = 474
writeThread 474 on CPU 218
APIO_procNo = 731
APIO_procNo = 857
writeThread 857 on CPU 217
APIO_procNo = 602
writeThread 602 on CPU 218
APIO_procNo = 217
APIO_procNo = 988
writeThread 988 on CPU 220
APIO_procNo = 347
APIO_procNo = 475
writeThread 475 on CPU 219
APIO_procNo = 732
APIO_procNo = 858
writeThread 858 on CPU 218
APIO_procNo = 603
writeThread 603 on CPU 219
APIO_procNo = 218
APIO_procNo = 989
writeThread 989 on CPU 221
APIO_procNo = 348
APIO_procNo = 476
writeThread 476 on CPU 220
APIO_procNo = 733
APIO_procNo = 859
writeThread 859 on CPU 219
APIO_procNo = 604
writeThread 604 on CPU 220
APIO_procNo = 219
APIO_procNo = 990
writeThread 990 on CPU 222
APIO_procNo = 349
APIO_procNo = 477
writeThread 477 on CPU 221
APIO_procNo = 734
APIO_procNo = 860
writeThread 860 on CPU 220
APIO_procNo = 605
writeThread 605 on CPU 221
APIO_procNo = 220
APIO_procNo = 991
writeThread 991 on CPU 223
APIO_procNo = 350
APIO_procNo = 478
writeThread 478 on CPU 222
APIO_procNo = 735
APIO_procNo = 861
writeThread 861 on CPU 221
APIO_procNo = 606
writeThread 606 on CPU 222
APIO_procNo = 221
APIO_procNo = 992
writeThread 992 on CPU 224
APIO_procNo = 351
APIO_procNo = 479
writeThread 479 on CPU 223
APIO_procNo = 736
writeThread 736 on CPU 224
APIO_procNo = 862
writeThread 862 on CPU 222
APIO_procNo = 607
writeThread 607 on CPU 223
APIO_procNo = 222
APIO_procNo = 993
writeThread 993 on CPU 225
APIO_procNo = 352
APIO_procNo = 480
writeThread 480 on CPU 224
APIO_procNo = 737
writeThread 737 on CPU 225
APIO_procNo = 863
writeThread 863 on CPU 223
APIO_procNo = 608
writeThread 608 on CPU 224
APIO_procNo = 223
APIO_procNo = 994
writeThread 994 on CPU 226
APIO_procNo = 353
APIO_procNo = 481
writeThread 481 on CPU 225
APIO_procNo = 738
APIO_procNo = 864
writeThread 864 on CPU 224
APIO_procNo = 609
writeThread 609 on CPU 225
APIO_procNo = 224
APIO_procNo = 995
writeThread 995 on CPU 227
APIO_procNo = 354
APIO_procNo = 482
writeThread 482 on CPU 226
APIO_procNo = 739
writeThread 739 on CPU 227
APIO_procNo = 865
writeThread 865 on CPU 225
APIO_procNo = 610
writeThread 610 on CPU 226
APIO_procNo = 225
APIO_procNo = 996
writeThread 996 on CPU 228
APIO_procNo = 355
APIO_procNo = 483
writeThread 483 on CPU 227
APIO_procNo = 740
writeThread 740 on CPU 228
APIO_procNo = 866
writeThread 866 on CPU 226
APIO_procNo = 611
writeThread 611 on CPU 227
APIO_procNo = 226
APIO_procNo = 997
writeThread 997 on CPU 229
APIO_procNo = 356
APIO_procNo = 484
writeThread 484 on CPU 228
APIO_procNo = 741
writeThread 741 on CPU 229
APIO_procNo = 867
writeThread 867 on CPU 227
APIO_procNo = 612
writeThread 612 on CPU 228
APIO_procNo = 227
APIO_procNo = 998
writeThread 998 on CPU 230
APIO_procNo = 357
APIO_procNo = 485
writeThread 485 on CPU 229
APIO_procNo = 742
writeThread 742 on CPU 230
APIO_procNo = 868
writeThread 868 on CPU 228
APIO_procNo = 613
writeThread 613 on CPU 229
APIO_procNo = 228
APIO_procNo = 999
writeThread 999 on CPU 231
APIO_procNo = 358
APIO_procNo = 486
writeThread 486 on CPU 230
APIO_procNo = 743
writeThread 743 on CPU 231
APIO_procNo = 869
writeThread 869 on CPU 229
APIO_procNo = 614
writeThread 614 on CPU 230
APIO_procNo = 229
APIO_procNo = 1000
writeThread 1000 on CPU 232
APIO_procNo = 359
APIO_procNo = 487
writeThread 487 on CPU 231
APIO_procNo = 744
writeThread 744 on CPU 232
APIO_procNo = 870
writeThread 870 on CPU 230
APIO_procNo = 615
writeThread 615 on CPU 231
APIO_procNo = 230
APIO_procNo = 1001
writeThread 1001 on CPU 233
APIO_procNo = 360
APIO_procNo = 488
writeThread 488 on CPU 232
APIO_procNo = 745
writeThread 745 on CPU 233
APIO_procNo = 871
writeThread 871 on CPU 231
APIO_procNo = 616
writeThread 616 on CPU 232
APIO_procNo = 231
APIO_procNo = 1002
writeThread 1002 on CPU 234
APIO_procNo = 361
writeThread 361 on CPU 233
APIO_procNo = 489
writeThread 489 on CPU 233
APIO_procNo = 746
writeThread 746 on CPU 234
APIO_procNo = 872
writeThread 872 on CPU 232
APIO_procNo = 617
writeThread 617 on CPU 233
APIO_procNo = 232
APIO_procNo = 1003
writeThread 1003 on CPU 235
APIO_procNo = 362
writeThread 362 on CPU 234
APIO_procNo = 490
writeThread 490 on CPU 234
APIO_procNo = 747
writeThread 747 on CPU 235
APIO_procNo = 873
writeThread 873 on CPU 233
APIO_procNo = 618
writeThread 618 on CPU 234
APIO_procNo = 233
APIO_procNo = 1004
writeThread 1004 on CPU 236
APIO_procNo = 363
writeThread 363 on CPU 235
APIO_procNo = 491
writeThread 491 on CPU 235
APIO_procNo = 748
writeThread 748 on CPU 236
APIO_procNo = 874
writeThread 874 on CPU 234
APIO_procNo = 619
writeThread 619 on CPU 235
APIO_procNo = 234
APIO_procNo = 1005
writeThread 1005 on CPU 237
APIO_procNo = 364
writeThread 364 on CPU 236
APIO_procNo = 492
writeThread 492 on CPU 236
APIO_procNo = 749
writeThread 749 on CPU 237
APIO_procNo = 875
writeThread 875 on CPU 235
APIO_procNo = 620
writeThread 620 on CPU 236
APIO_procNo = 235
APIO_procNo = 1006
writeThread 1006 on CPU 238
APIO_procNo = 365
writeThread 365 on CPU 237
APIO_procNo = 493
writeThread 493 on CPU 237
APIO_procNo = 750
writeThread 750 on CPU 238
APIO_procNo = 876
writeThread 876 on CPU 236
APIO_procNo = 621
writeThread 621 on CPU 237
APIO_procNo = 236
APIO_procNo = 1007
writeThread 1007 on CPU 239
APIO_procNo = 366
writeThread 366 on CPU 238
APIO_procNo = 494
writeThread 494 on CPU 238
APIO_procNo = 751
writeThread 751 on CPU 239
APIO_procNo = 877
writeThread 877 on CPU 237
APIO_procNo = 622
writeThread 622 on CPU 238
APIO_procNo = 237
APIO_procNo = 1008
writeThread 1008 on CPU 240
APIO_procNo = 367
writeThread 367 on CPU 239
APIO_procNo = 495
writeThread 495 on CPU 239
APIO_procNo = 752
writeThread 752 on CPU 240
APIO_procNo = 878
writeThread 878 on CPU 238
APIO_procNo = 623
writeThread 623 on CPU 239
APIO_procNo = 238
writeThread 238 on CPU 238
APIO_procNo = 1009
writeThread 1009 on CPU 241
APIO_procNo = 368
writeThread 368 on CPU 240
APIO_procNo = 496
writeThread 496 on CPU 240
APIO_procNo = 753
writeThread 753 on CPU 241
APIO_procNo = 879
writeThread 879 on CPU 239
APIO_procNo = 624
writeThread 624 on CPU 240
APIO_procNo = 239
writeThread 239 on CPU 239
APIO_procNo = 1010
writeThread 1010 on CPU 242
APIO_procNo = 369
writeThread 369 on CPU 241
APIO_procNo = 497
writeThread 497 on CPU 241
APIO_procNo = 754
writeThread 754 on CPU 242
APIO_procNo = 880
writeThread 880 on CPU 240
APIO_procNo = 625
writeThread 625 on CPU 241
APIO_procNo = 240
writeThread 240 on CPU 240
APIO_procNo = 1011
writeThread 1011 on CPU 243
APIO_procNo = 370
writeThread 370 on CPU 242
APIO_procNo = 498
writeThread 498 on CPU 242
APIO_procNo = 755
writeThread 755 on CPU 243
APIO_procNo = 881
APIO_procNo = 626
writeThread 626 on CPU 242
APIO_procNo = 241
writeThread 241 on CPU 241
APIO_procNo = 1012
writeThread 1012 on CPU 244
APIO_procNo = 371
writeThread 371 on CPU 243
APIO_procNo = 499
writeThread 499 on CPU 243
APIO_procNo = 756
writeThread 756 on CPU 244
APIO_procNo = 882
writeThread 882 on CPU 242
APIO_procNo = 627
writeThread 627 on CPU 243
APIO_procNo = 242
writeThread 242 on CPU 242
APIO_procNo = 1013
writeThread 1013 on CPU 245
APIO_procNo = 372
writeThread 372 on CPU 244
APIO_procNo = 500
writeThread 500 on CPU 244
APIO_procNo = 757
writeThread 757 on CPU 245
APIO_procNo = 883
writeThread 883 on CPU 243
APIO_procNo = 628
writeThread 628 on CPU 244
APIO_procNo = 243
writeThread 243 on CPU 243
APIO_procNo = 1014
writeThread 1014 on CPU 246
APIO_procNo = 373
writeThread 373 on CPU 245
APIO_procNo = 501
writeThread 501 on CPU 245
APIO_procNo = 758
writeThread 758 on CPU 246
APIO_procNo = 884
writeThread 884 on CPU 244
APIO_procNo = 629
writeThread 629 on CPU 245
APIO_procNo = 244
writeThread 244 on CPU 244
APIO_procNo = 1015
writeThread 1015 on CPU 247
APIO_procNo = 374
writeThread 374 on CPU 246
APIO_procNo = 502
writeThread 502 on CPU 246
APIO_procNo = 759
writeThread 759 on CPU 247
APIO_procNo = 885
writeThread 885 on CPU 245
APIO_procNo = 630
writeThread 630 on CPU 246
APIO_procNo = 245
writeThread 245 on CPU 245
APIO_procNo = 1016
writeThread 1016 on CPU 248
APIO_procNo = 375
writeThread 375 on CPU 247
APIO_procNo = 503
writeThread 503 on CPU 247
APIO_procNo = 760
writeThread 760 on CPU 248
APIO_procNo = 886
writeThread 886 on CPU 246
APIO_procNo = 631
writeThread 631 on CPU 247
APIO_procNo = 246
writeThread 246 on CPU 246
APIO_procNo = 1017
writeThread 1017 on CPU 249
APIO_procNo = 376
writeThread 376 on CPU 248
APIO_procNo = 504
writeThread 504 on CPU 248
APIO_procNo = 761
writeThread 761 on CPU 249
APIO_procNo = 887
writeThread 887 on CPU 247
APIO_procNo = 632
writeThread 632 on CPU 248
APIO_procNo = 247
writeThread 247 on CPU 247
APIO_procNo = 1018
writeThread 1018 on CPU 250
APIO_procNo = 377
writeThread 377 on CPU 249
APIO_procNo = 505
writeThread 505 on CPU 249
APIO_procNo = 762
writeThread 762 on CPU 250
APIO_procNo = 888
writeThread 888 on CPU 248
APIO_procNo = 633
writeThread 633 on CPU 249
APIO_procNo = 248
writeThread 248 on CPU 248
APIO_procNo = 1019
writeThread 1019 on CPU 251
APIO_procNo = 378
writeThread 378 on CPU 250
APIO_procNo = 506
writeThread 506 on CPU 250
APIO_procNo = 763
writeThread 763 on CPU 251
APIO_procNo = 889
writeThread 889 on CPU 249
APIO_procNo = 634
writeThread 634 on CPU 250
APIO_procNo = 249
writeThread 249 on CPU 249
APIO_procNo = 1020
writeThread 1020 on CPU 252
APIO_procNo = 379
writeThread 379 on CPU 251
APIO_procNo = 507
writeThread 507 on CPU 251
APIO_procNo = 764
APIO_procNo = 890
writeThread 890 on CPU 250
APIO_procNo = 635
writeThread 635 on CPU 251
APIO_procNo = 250
writeThread 250 on CPU 250
APIO_procNo = 1021
writeThread 1021 on CPU 253
APIO_procNo = 380
APIO_procNo = 508
APIO_procNo = 765
writeThread 765 on CPU 253
APIO_procNo = 891
writeThread 891 on CPU 251
APIO_procNo = 636
writeThread 636 on CPU 252
APIO_procNo = 251
writeThread 251 on CPU 251
APIO_procNo = 1022
APIO_procNo = 381
writeThread 381 on CPU 253
APIO_procNo = 509
writeThread 509 on CPU 253
APIO_procNo = 766
writeThread 766 on CPU 254
APIO_procNo = 892
writeThread 892 on CPU 252
APIO_procNo = 637
writeThread 637 on CPU 253
APIO_procNo = 252
APIO_procNo = 1023
writeThread 1023 on CPU 255
APIO_procNo = 382
writeThread 382 on CPU 254
APIO_procNo = 510
writeThread 510 on CPU 254
APIO_procNo = 767
writeThread 767 on CPU 255
APIO_procNo = 893
writeThread 893 on CPU 253
APIO_procNo = 638
APIO_procNo = 253
writeThread 253 on CPU 253
writeThread 896 on CPU 128
APIO_procNo = 383
writeThread 383 on CPU 255
APIO_procNo = 511
writeThread 511 on CPU 255
writeThread 640 on CPU 128
APIO_procNo = 894
writeThread 894 on CPU 254
APIO_procNo = 639
writeThread 639 on CPU 255
APIO_procNo = 254
writeThread 254 on CPU 254
writeThread 897 on CPU 129
writeThread 257 on CPU 129
writeThread 384 on CPU 128
writeThread 641 on CPU 129
APIO_procNo = 895
writeThread 895 on CPU 255
writeThread 512 on CPU 128
APIO_procNo = 255
writeThread 255 on CPU 255
writeThread 898 on CPU 130
writeThread 258 on CPU 130
writeThread 508 on CPU 252
writeThread 642 on CPU 130
writeThread 768 on CPU 128
writeThread 513 on CPU 129
writeThread 128 on CPU 128
writeThread 899 on CPU 131
writeThread 259 on CPU 131
writeThread 643 on CPU 131
writeThread 769 on CPU 129
writeThread 514 on CPU 130
writeThread 129 on CPU 129
writeThread 900 on CPU 132
writeThread 260 on CPU 132
writeThread 644 on CPU 132
writeThread 770 on CPU 130
writeThread 515 on CPU 131
writeThread 130 on CPU 130
writeThread 901 on CPU 133
writeThread 261 on CPU 133
writeThread 645 on CPU 133
writeThread 771 on CPU 131
writeThread 516 on CPU 132
writeThread 131 on CPU 131
writeThread 902 on CPU 134
writeThread 262 on CPU 134
writeThread 646 on CPU 134
writeThread 772 on CPU 132
writeThread 517 on CPU 133
writeThread 132 on CPU 132
writeThread 903 on CPU 135
writeThread 263 on CPU 135
writeThread 647 on CPU 135
writeThread 773 on CPU 133
writeThread 518 on CPU 134
writeThread 133 on CPU 133
writeThread 904 on CPU 136
writeThread 264 on CPU 136
writeThread 648 on CPU 136
writeThread 774 on CPU 134
writeThread 519 on CPU 135
writeThread 134 on CPU 134
writeThread 905 on CPU 137
writeThread 265 on CPU 137
writeThread 649 on CPU 137
writeThread 775 on CPU 135
writeThread 520 on CPU 136
writeThread 135 on CPU 135
writeThread 906 on CPU 138
writeThread 266 on CPU 138
writeThread 650 on CPU 138
writeThread 776 on CPU 136
writeThread 521 on CPU 137
writeThread 136 on CPU 136
writeThread 907 on CPU 139
writeThread 267 on CPU 139
writeThread 651 on CPU 139
writeThread 777 on CPU 137
writeThread 522 on CPU 138
writeThread 137 on CPU 137
writeThread 908 on CPU 140
writeThread 268 on CPU 140
writeThread 652 on CPU 140
writeThread 778 on CPU 138
writeThread 523 on CPU 139
writeThread 138 on CPU 138
writeThread 909 on CPU 141
writeThread 269 on CPU 141
writeThread 653 on CPU 141
writeThread 779 on CPU 139
writeThread 524 on CPU 140
writeThread 139 on CPU 139
writeThread 910 on CPU 142
writeThread 270 on CPU 142
writeThread 654 on CPU 142
writeThread 780 on CPU 140
writeThread 525 on CPU 141
writeThread 140 on CPU 140
writeThread 911 on CPU 143
writeThread 271 on CPU 143
writeThread 655 on CPU 143
writeThread 781 on CPU 141
writeThread 526 on CPU 142
writeThread 141 on CPU 141
writeThread 916 on CPU 148
writeThread 288 on CPU 160
writeThread 656 on CPU 144
writeThread 782 on CPU 142
writeThread 527 on CPU 143
writeThread 142 on CPU 142
writeThread 930 on CPU 162
writeThread 289 on CPU 161
writeThread 657 on CPU 145
writeThread 783 on CPU 143
writeThread 532 on CPU 148
writeThread 143 on CPU 143
writeThread 932 on CPU 164
writeThread 290 on CPU 162
writeThread 658 on CPU 146
writeThread 881 on CPU 241
writeThread 533 on CPU 149
writeThread 145 on CPU 145
writeThread 933 on CPU 165
writeThread 291 on CPU 163
writeThread 659 on CPU 147
writeThread 534 on CPU 150
writeThread 146 on CPU 146
writeThread 934 on CPU 166
writeThread 292 on CPU 164
writeThread 661 on CPU 149
writeThread 535 on CPU 151
writeThread 148 on CPU 148
writeThread 935 on CPU 167
writeThread 293 on CPU 165
writeThread 664 on CPU 152
writeThread 564 on CPU 180
writeThread 149 on CPU 149
writeThread 936 on CPU 168
writeThread 294 on CPU 166
writeThread 665 on CPU 153
writeThread 565 on CPU 181
writeThread 150 on CPU 150
writeThread 937 on CPU 169
writeThread 295 on CPU 167
writeThread 666 on CPU 154
writeThread 566 on CPU 182
writeThread 151 on CPU 151
writeThread 938 on CPU 170
writeThread 296 on CPU 168
writeThread 667 on CPU 155
writeThread 567 on CPU 183
writeThread 152 on CPU 152
writeThread 939 on CPU 171
writeThread 297 on CPU 169
writeThread 672 on CPU 160
writeThread 568 on CPU 184
writeThread 153 on CPU 153
writeThread 940 on CPU 172
writeThread 298 on CPU 170
writeThread 673 on CPU 161
writeThread 570 on CPU 186
writeThread 154 on CPU 154
writeThread 941 on CPU 173
writeThread 299 on CPU 171
writeThread 674 on CPU 162
writeThread 571 on CPU 187
writeThread 155 on CPU 155
writeThread 942 on CPU 174
writeThread 300 on CPU 172
writeThread 675 on CPU 163
writeThread 572 on CPU 188
writeThread 156 on CPU 156
writeThread 943 on CPU 175
writeThread 301 on CPU 173
writeThread 676 on CPU 164
writeThread 573 on CPU 189
writeThread 157 on CPU 157
writeThread 966 on CPU 198
writeThread 302 on CPU 174
writeThread 677 on CPU 165
writeThread 574 on CPU 190
writeThread 158 on CPU 158
writeThread 1022 on CPU 254
writeThread 303 on CPU 175
writeThread 678 on CPU 166
writeThread 575 on CPU 191
writeThread 159 on CPU 159
writeThread 304 on CPU 176
writeThread 679 on CPU 167
writeThread 576 on CPU 192
writeThread 160 on CPU 160
writeThread 305 on CPU 177
writeThread 680 on CPU 168
writeThread 577 on CPU 193
writeThread 161 on CPU 161
writeThread 306 on CPU 178
writeThread 681 on CPU 169
writeThread 578 on CPU 194
writeThread 162 on CPU 162
writeThread 307 on CPU 179
writeThread 682 on CPU 170
writeThread 579 on CPU 195
writeThread 163 on CPU 163
writeThread 316 on CPU 188
writeThread 683 on CPU 171
writeThread 584 on CPU 200
writeThread 164 on CPU 164
writeThread 317 on CPU 189
writeThread 684 on CPU 172
writeThread 638 on CPU 254
writeThread 165 on CPU 165
writeThread 318 on CPU 190
writeThread 685 on CPU 173
writeThread 166 on CPU 166
writeThread 319 on CPU 191
writeThread 686 on CPU 174
writeThread 167 on CPU 167
writeThread 320 on CPU 192
writeThread 687 on CPU 175
writeThread 168 on CPU 168
writeThread 321 on CPU 193
writeThread 688 on CPU 176
writeThread 169 on CPU 169
writeThread 322 on CPU 194
writeThread 689 on CPU 177
writeThread 170 on CPU 170
writeThread 323 on CPU 195
writeThread 690 on CPU 178
writeThread 171 on CPU 171
writeThread 324 on CPU 196
writeThread 691 on CPU 179
writeThread 172 on CPU 172
writeThread 325 on CPU 197
writeThread 692 on CPU 180
writeThread 173 on CPU 173
writeThread 326 on CPU 198
writeThread 693 on CPU 181
writeThread 174 on CPU 174
writeThread 327 on CPU 199
writeThread 694 on CPU 182
writeThread 175 on CPU 175
writeThread 328 on CPU 200
writeThread 695 on CPU 183
writeThread 180 on CPU 180
writeThread 329 on CPU 201
writeThread 696 on CPU 184
writeThread 181 on CPU 181
writeThread 330 on CPU 202
writeThread 697 on CPU 185
writeThread 182 on CPU 182
writeThread 331 on CPU 203
writeThread 698 on CPU 186
writeThread 183 on CPU 183
writeThread 332 on CPU 204
writeThread 699 on CPU 187
writeThread 184 on CPU 184
writeThread 333 on CPU 205
writeThread 700 on CPU 188
writeThread 185 on CPU 185
writeThread 334 on CPU 206
writeThread 701 on CPU 189
writeThread 186 on CPU 186
writeThread 335 on CPU 207
writeThread 702 on CPU 190
writeThread 187 on CPU 187
writeThread 337 on CPU 209
writeThread 703 on CPU 191
writeThread 188 on CPU 188
writeThread 340 on CPU 212
writeThread 704 on CPU 192
writeThread 189 on CPU 189
writeThread 341 on CPU 213
writeThread 705 on CPU 193
writeThread 190 on CPU 190
writeThread 342 on CPU 214
writeThread 706 on CPU 194
writeThread 191 on CPU 191
writeThread 343 on CPU 215
writeThread 707 on CPU 195
writeThread 194 on CPU 194
writeThread 344 on CPU 216
writeThread 708 on CPU 196
writeThread 195 on CPU 195
writeThread 345 on CPU 217
writeThread 709 on CPU 197
writeThread 208 on CPU 208
writeThread 346 on CPU 218
writeThread 710 on CPU 198
writeThread 209 on CPU 209
writeThread 347 on CPU 219
writeThread 711 on CPU 199
writeThread 210 on CPU 210
writeThread 348 on CPU 220
writeThread 712 on CPU 200
writeThread 211 on CPU 211
writeThread 349 on CPU 221
writeThread 713 on CPU 201
writeThread 212 on CPU 212
writeThread 350 on CPU 222
writeThread 714 on CPU 202
writeThread 213 on CPU 213
writeThread 351 on CPU 223
writeThread 715 on CPU 203
writeThread 214 on CPU 214
writeThread 352 on CPU 224
writeThread 716 on CPU 204
writeThread 215 on CPU 215
writeThread 353 on CPU 225
writeThread 717 on CPU 205
writeThread 216 on CPU 216
writeThread 354 on CPU 226
writeThread 718 on CPU 206
writeThread 217 on CPU 217
writeThread 355 on CPU 227
writeThread 719 on CPU 207
writeThread 218 on CPU 218
writeThread 356 on CPU 228
writeThread 720 on CPU 208
writeThread 219 on CPU 219
writeThread 357 on CPU 229
writeThread 721 on CPU 209
writeThread 220 on CPU 220
writeThread 358 on CPU 230
writeThread 722 on CPU 210
writeThread 221 on CPU 221
writeThread 359 on CPU 231
writeThread 723 on CPU 211
writeThread 222 on CPU 222
writeThread 360 on CPU 232
writeThread 724 on CPU 212
writeThread 223 on CPU 223
writeThread 380 on CPU 252
writeThread 725 on CPU 213
writeThread 224 on CPU 224
writeThread 726 on CPU 214
writeThread 225 on CPU 225
writeThread 727 on CPU 215
writeThread 226 on CPU 226
writeThread 728 on CPU 216
writeThread 227 on CPU 227
writeThread 729 on CPU 217
writeThread 228 on CPU 228
writeThread 730 on CPU 218
writeThread 229 on CPU 229
writeThread 731 on CPU 219
writeThread 230 on CPU 230
writeThread 732 on CPU 220
writeThread 231 on CPU 231
writeThread 733 on CPU 221
writeThread 232 on CPU 232
writeThread 734 on CPU 222
writeThread 233 on CPU 233
writeThread 735 on CPU 223
writeThread 234 on CPU 234
writeThread 738 on CPU 226
writeThread 235 on CPU 235
writeThread 764 on CPU 252
writeThread 236 on CPU 236
writeThread 237 on CPU 237
writeThread 252 on CPU 252

Starting time loop

Courant Number mean: 1.036765635763725e-11 max: 2.085039370078742e-05
deltaT = 1.2e-09
Time = 1.2e-09

PIMPLE: iteration 1
diagonal:  Solving for rho, Initial residual = 0, Final residual = 0, No Iterations 0
DILUPBiCG:  Solving for Ux, Initial residual = 1, Final residual = 1.800630449110034e-20, No Iterations 2
DILUPBiCG:  Solving for Uy, Initial residual = 1, Final residual = 2.845880164098443e-20, No Iterations 2
DILUPBiCG:  Solving for Uz, Initial residual = 1, Final residual = 3.534452934079979e-20, No Iterations 2
DILUPBiCG:  Solving for e, Initial residual = 0.9999960228236863, Final residual = 1.42158890855208e-19, No Iterations 2
DILUPBiCG:  Solving for p, Initial residual = 0.999998528452542, Final residual = 4.931630959597361e-10, No Iterations 1
pEqnloop: 0
diagonal:  Solving for rho, Initial residual = 0, Final residual = 0, No Iterations 0
time step continuity errors : sum local = 2.48296203179604e-16, global = -2.480230065217711e-16, cumulative = -2.480230065217711e-16
DILUPBiCG:  Solving for p, Initial residual = 4.655800886149645e-07, Final residual = 7.449369273026558e-16, No Iterations 1
pEqnloop: 1
diagonal:  Solving for rho, Initial residual = 0, Final residual = 0, No Iterations 0
time step continuity errors : sum local = 2.662597372084555e-16, global = -2.655854214592859e-16, cumulative = -5.13608427981057e-16
DILUPBiCG:  Solving for k, Initial residual = 0.9999999803404043, Final residual = 3.535703174906823e-20, No Iterations 2
ExecutionTime = 5.14 s  ClockTime = 21 s

Courant Number mean: 1.244124999697906e-11 max: 2.501990921293873e-05
deltaT = 1.44e-09
Time = 2.64e-09

PIMPLE: iteration 1
diagonal:  Solving for rho, Initial residual = 0, Final residual = 0, No Iterations 0
DILUPBiCG:  Solving for Ux, Initial residual = 0.3749195246763714, Final residual = 4.095371235104009e-21, No Iterations 2
DILUPBiCG:  Solving for Uy, Initial residual = 0.3749195246144995, Final residual = 6.4547135559982e-21, No Iterations 2
DILUPBiCG:  Solving for Uz, Initial residual = 0.2307596483096125, Final residual = 4.951504813334349e-21, No Iterations 2
DILUPBiCG:  Solving for e, Initial residual = 0.2307552715726446, Final residual = 1.987913003088778e-20, No Iterations 2
DILUPBiCG:  Solving for p, Initial residual = 0.2307627928085607, Final residual = 6.862361419979813e-11, No Iterations 1
pEqnloop: 0
diagonal:  Solving for rho, Initial residual = 0, Final residual = 0, No Iterations 0
time step continuity errors : sum local = 5.443437411643772e-16, global = -5.443002382497819e-16, cumulative = -1.057908666230839e-15
DILUPBiCG:  Solving for p, Initial residual = 3.198850014264708e-07, Final residual = 3.205828881393769e-14, No Iterations 1
pEqnloop: 1
diagonal:  Solving for rho, Initial residual = 0, Final residual = 0, No Iterations 0
time step continuity errors : sum local = 4.815658642340229e-16, global = -4.815610119632488e-16, cumulative = -1.539469678194088e-15
DILUPBiCG:  Solving for k, Initial residual = 0.7612497697859771, Final residual = 1.636156390687061e-20, No Iterations 2
ExecutionTime = 8.82 s  ClockTime = 32 s

Courant Number mean: 1.492959019326652e-11 max: 3.002308059560315e-05
deltaT = 1.728e-09
Time = 4.368e-09

PIMPLE: iteration 1
diagonal:  Solving for rho, Initial residual = 0, Final residual = 0, No Iterations 0
DILUPBiCG:  Solving for Ux, Initial residual = 0.3231075335912518, Final residual = 5.173776614484275e-21, No Iterations 2
DILUPBiCG:  Solving for Uy, Initial residual = 0.3231075354355437, Final residual = 8.089222903240864e-21, No Iterations 2
DILUPBiCG:  Solving for Uz, Initial residual = 0.140614145018672, Final residual = 4.432017050842379e-21, No Iterations 2
DILUPBiCG:  Solving for e, Initial residual = 0.1406095808689621, Final residual = 1.769671531756849e-20, No Iterations 2
DILUPBiCG:  Solving for p, Initial residual = 0.1406152032720898, Final residual = 6.022692692432733e-11, No Iterations 1
pEqnloop: 0
diagonal:  Solving for rho, Initial residual = 0, Final residual = 0, No Iterations 0
time step continuity errors : sum local = 6.594687248728819e-16, global = -6.59411670280191e-16, cumulative = -2.198881348474279e-15
DILUPBiCG:  Solving for p, Initial residual = 2.016269677491974e-07, Final residual = 1.557314394304043e-13, No Iterations 1
pEqnloop: 1
diagonal:  Solving for rho, Initial residual = 0, Final residual = 0, No Iterations 0
time step continuity errors : sum local = 6.449541913771289e-16, global = -6.449540914515043e-16, cumulative = -2.843835439925783e-15
DILUPBiCG:  Solving for k, Initial residual = 0.5223923020670069, Final residual = 1.652669853845316e-20, No Iterations 2
ExecutionTime = 13.13 s  ClockTime = 45 s

Courant Number mean: 1.791563870942343e-11 max: 3.602653054273846e-05
deltaT = 2.0736e-09
Time = 6.4416e-09

PIMPLE: iteration 1
diagonal:  Solving for rho, Initial residual = 0, Final residual = 0, No Iterations 0
DILUPBiCG:  Solving for Ux, Initial residual = 0.2861773920225993, Final residual = 6.812611574723377e-21, No Iterations 2
DILUPBiCG:  Solving for Uy, Initial residual = 0.2861773930741808, Final residual = 1.050139087390308e-20, No Iterations 2
DILUPBiCG:  Solving for Uz, Initial residual = 0.1060777872418427, Final residual = 4.988362666965388e-21, No Iterations 2
DILUPBiCG:  Solving for e, Initial residual = 0.1060709241874318, Final residual = 1.972906615629812e-20, No Iterations 2
DILUPBiCG:  Solving for p, Initial residual = 0.1060778399081083, Final residual = 6.544570433366868e-11, No Iterations 1
pEqnloop: 0
diagonal:  Solving for rho, Initial residual = 0, Final residual = 0, No Iterations 0
time step continuity errors : sum local = 3.566331760048615e-16, global = -3.544462684414465e-16, cumulative = -3.19828170836723e-15
DILUPBiCG:  Solving for p, Initial residual = 1.45908109767651e-07, Final residual = 3.190311262129016e-13, No Iterations 1
pEqnloop: 1
diagonal:  Solving for rho, Initial residual = 0, Final residual = 0, No Iterations 0
time step continuity errors : sum local = 3.888499336100591e-16, global = -3.884164856402019e-16, cumulative = -3.586698194007432e-15
DILUPBiCG:  Solving for k, Initial residual = 0.3755560654066561, Final residual = 1.779001763918827e-20, No Iterations 2
ExecutionTime = 24.3 s  ClockTime = 66 s

Courant Number mean: 2.149895558664216e-11 max: 4.323015923841612e-05
deltaT = 2.48832e-09
Time = 8.92992e-09

PIMPLE: iteration 1
diagonal:  Solving for rho, Initial residual = 0, Final residual = 0, No Iterations 0
DILUPBiCG:  Solving for Ux, Initial residual = 0.258011491613973, Final residual = 9.267193301249531e-21, No Iterations 2
DILUPBiCG:  Solving for Uy, Initial residual = 0.2580114928107205, Final residual = 1.399660045772703e-20, No Iterations 2
DILUPBiCG:  Solving for Uz, Initial residual = 0.08805262551101523, Final residual = 6.278464350568639e-21, No Iterations 2
DILUPBiCG:  Solving for e, Initial residual = 0.0880437743970348, Final residual = 2.450208987008362e-20, No Iterations 2
DILUPBiCG:  Solving for p, Initial residual = 0.08805159466933557, Final residual = 7.825985326050452e-11, No Iterations 1
pEqnloop: 0
diagonal:  Solving for rho, Initial residual = 0, Final residual = 0, No Iterations 0
time step continuity errors : sum local = 1.19991064799706e-16, global = -4.364816677179797e-17, cumulative = -3.63034636077923e-15
DILUPBiCG:  Solving for p, Initial residual = 8.072470015540353e-08, Final residual = 8.994016062595286e-14, No Iterations 1
pEqnloop: 1
diagonal:  Solving for rho, Initial residual = 0, Final residual = 0, No Iterations 0
time step continuity errors : sum local = 1.129157442462744e-16, global = -2.302717835495717e-17, cumulative = -3.653373539134187e-15
DILUPBiCG:  Solving for k, Initial residual = 0.290687413092782, Final residual = 2.099823979668907e-20, No Iterations 2
ExecutionTime = 31.28 s  ClockTime = 87 s

Courant Number mean: 2.579902138264185e-11 max: 5.187377896431863e-05
deltaT = 2.985983999999999e-09
Time = 1.19159e-08

PIMPLE: iteration 1
diagonal:  Solving for rho, Initial residual = 0, Final residual = 0, No Iterations 0
DILUPBiCG:  Solving for Ux, Initial residual = 0.2369026538178321, Final residual = 1.303871176833735e-20, No Iterations 2
DILUPBiCG:  Solving for Uy, Initial residual = 0.2369026547739166, Final residual = 1.917822875061894e-20, No Iterations 2
DILUPBiCG:  Solving for Uz, Initial residual = 0.07712843001003362, Final residual = 8.479152197507508e-21, No Iterations 2
DILUPBiCG:  Solving for e, Initial residual = 0.07711646282431511, Final residual = 3.254100369057143e-20, No Iterations 2
DILUPBiCG:  Solving for p, Initial residual = 0.07712570122335635, Final residual = 9.876491124207539e-11, No Iterations 1
pEqnloop: 0
diagonal:  Solving for rho, Initial residual = 0, Final residual = 0, No Iterations 0
time step continuity errors : sum local = 3.622517234510767e-16, global = 3.61492958793277e-16, cumulative = -3.29188058034091e-15
DILUPBiCG:  Solving for p, Initial residual = 5.308585172533159e-08, Final residual = 7.007878898575505e-14, No Iterations 1
pEqnloop: 1
diagonal:  Solving for rho, Initial residual = 0, Final residual = 0, No Iterations 0
time step continuity errors : sum local = 3.788995764526029e-16, global = 3.731363366614755e-16, cumulative = -2.918744243679435e-15
DILUPBiCG:  Solving for k, Initial residual = 0.238515552415273, Final residual = 2.679484961864922e-20, No Iterations 2
ExecutionTime = 39.37 s  ClockTime = 105 s

Courant Number mean: 3.095922535039619e-11 max: 6.224506732903097e-05
deltaT = 3.583180799999999e-09
Time = 1.54991e-08

PIMPLE: iteration 1
diagonal:  Solving for rho, Initial residual = 0, Final residual = 0, No Iterations 0
DILUPBiCG:  Solving for Ux, Initial residual = 0.2210518236980069, Final residual = 1.895046175935208e-20, No Iterations 2
DILUPBiCG:  Solving for Uy, Initial residual = 0.2210518239754936, Final residual = 2.698628804726048e-20, No Iterations 2
DILUPBiCG:  Solving for Uz, Initial residual = 0.06989931929214335, Final residual = 1.205506157294519e-20, No Iterations 2
DILUPBiCG:  Solving for e, Initial residual = 0.06988443060125268, Final residual = 4.536983459265979e-20, No Iterations 2
DILUPBiCG:  Solving for p, Initial residual = 0.06989572677033958, Final residual = 1.289778808010259e-10, No Iterations 1
pEqnloop: 0
diagonal:  Solving for rho, Initial residual = 0, Final residual = 0, No Iterations 0
time step continuity errors : sum local = 3.227444907074883e-16, global = 3.224307771479358e-16, cumulative = -2.596313466531499e-15
DILUPBiCG:  Solving for p, Initial residual = 3.977510201739399e-08, Final residual = 4.994922938509533e-14, No Iterations 1
pEqnloop: 1
diagonal:  Solving for rho, Initial residual = 0, Final residual = 0, No Iterations 0
time step continuity errors : sum local = 3.154147198384197e-16, global = 3.14753444383464e-16, cumulative = -2.281560022148035e-15
DILUPBiCG:  Solving for k, Initial residual = 0.2042780638816124, Final residual = 3.645583439670566e-20, No Iterations 2
ExecutionTime = 49.43 s  ClockTime = 122 s

Courant Number mean: 3.715165332599924e-11 max: 7.468909815230524e-05
deltaT = 4.299816959999999e-09
Time = 1.97989e-08

PIMPLE: iteration 1
diagonal:  Solving for rho, Initial residual = 0, Final residual = 0, No Iterations 0
DILUPBiCG:  Solving for Ux, Initial residual = 0.2090172478624142, Final residual = 2.849941881897655e-20, No Iterations 2
DILUPBiCG:  Solving for Uy, Initial residual = 0.2090172478378126, Final residual = 3.893704445917932e-20, No Iterations 2
DILUPBiCG:  Solving for Uz, Initial residual = 0.06483296988418377, Final residual = 1.785965549312212e-20, No Iterations 2
DILUPBiCG:  Solving for e, Initial residual = 0.06481512342426086, Final residual = 6.578710211014427e-20, No Iterations 2
DILUPBiCG:  Solving for p, Initial residual = 0.0648283509282797, Final residual = 1.724101759076808e-10, No Iterations 1
pEqnloop: 0
diagonal:  Solving for rho, Initial residual = 0, Final residual = 0, No Iterations 0
time step continuity errors : sum local = 1.377726342321201e-16, global = -7.580599762968369e-17, cumulative = -2.357366019777719e-15
DILUPBiCG:  Solving for p, Initial residual = 3.443936474074894e-08, Final residual = 4.747513177635213e-14, No Iterations 1
pEqnloop: 1
diagonal:  Solving for rho, Initial residual = 0, Final residual = 0, No Iterations 0
time step continuity errors : sum local = 1.405022657826872e-16, global = -8.76343216627649e-17, cumulative = -2.445000341440484e-15
DILUPBiCG:  Solving for k, Initial residual = 0.1805907777538321, Final residual = 5.239443933306973e-20, No Iterations 2
ExecutionTime = 55.62 s  ClockTime = 138 s

Courant Number mean: 4.458283626343821e-11 max: 8.961976116517031e-05
deltaT = 5.159780351999998e-09
Time = 2.49587e-08

PIMPLE: iteration 1
diagonal:  Solving for rho, Initial residual = 0, Final residual = 0, No Iterations 0
DILUPBiCG:  Solving for Ux, Initial residual = 0.199757890794542, Final residual = 4.466200701538339e-20, No Iterations 2
DILUPBiCG:  Solving for Uy, Initial residual = 0.1997578905561348, Final residual = 5.753802375290924e-20, No Iterations 2
DILUPBiCG:  Solving for Uz, Initial residual = 0.06113765121138639, Final residual = 2.74053074402662e-20, No Iterations 2
DILUPBiCG:  Solving for e, Initial residual = 0.06111614695722126, Final residual = 9.872076956635285e-20, No Iterations 2
DILUPBiCG:  Solving for p, Initial residual = 0.06113204873584106, Final residual = 2.343602045683209e-10, No Iterations 1
pEqnloop: 0
diagonal:  Solving for rho, Initial residual = 0, Final residual = 0, No Iterations 0
time step continuity errors : sum local = 2.865190799569716e-16, global = -2.842342335263114e-16, cumulative = -2.729234574966795e-15
DILUPBiCG:  Solving for p, Initial residual = 2.371049232741374e-08, Final residual = 3.609288132425934e-14, No Iterations 1
pEqnloop: 1
diagonal:  Solving for rho, Initial residual = 0, Final residual = 0, No Iterations 0
time step continuity errors : sum local = 2.817307821578105e-16, global = -2.784584295588641e-16, cumulative = -3.007693004525659e-15
DILUPBiCG:  Solving for k, Initial residual = 0.1635153332938508, Final residual = 7.907824697667714e-20, No Iterations 2
ExecutionTime = 62.59 s  ClockTime = 155 s

Courant Number mean: 5.350065326149145e-11 max: 0.0001075334397309668
deltaT = 6.191736422399998e-09
Time = 3.11504e-08

PIMPLE: iteration 1
diagonal:  Solving for rho, Initial residual = 0, Final residual = 0, No Iterations 0
DILUPBiCG:  Solving for Ux, Initial residual = 0.1925419325052781, Final residual = 7.235027210265835e-20, No Iterations 2
DILUPBiCG:  Solving for Uy, Initial residual = 0.1925419322819769, Final residual = 8.701499689073714e-20, No Iterations 2
DILUPBiCG:  Solving for Uz, Initial residual = 0.05836276504385531, Final residual = 4.338332429753795e-20, No Iterations 2
DILUPBiCG:  Solving for e, Initial residual = 0.05833694737030386, Final residual = 1.529246170097791e-19, No Iterations 2
DILUPBiCG:  Solving for p, Initial residual = 0.05835595502273538, Final residual = 3.225640123795369e-10, No Iterations 1
pEqnloop: 0
diagonal:  Solving for rho, Initial residual = 0, Final residual = 0, No Iterations 0
time step continuity errors : sum local = 5.158320431968825e-16, global = -5.114426661257415e-16, cumulative = -3.519135670651401e-15
DILUPBiCG:  Solving for p, Initial residual = 1.56663697888156e-08, Final residual = 2.792423125731183e-14, No Iterations 1
pEqnloop: 1
diagonal:  Solving for rho, Initial residual = 0, Final residual = 0, No Iterations 0
time step continuity errors : sum local = 5.264307060026479e-16, global = -5.247111917324669e-16, cumulative = -4.043846862383868e-15
DILUPBiCG:  Solving for k, Initial residual = 0.1508056323929635, Final residual = 1.248758824966109e-19, No Iterations 2
ExecutionTime = 71.26000000000001 s  ClockTime = 169 s

Courant Number mean: 6.420262259049183e-11 max: 0.0001290253889150596
deltaT = 7.430083706879997e-09
Time = 3.85805e-08

PIMPLE: iteration 1
diagonal:  Solving for rho, Initial residual = 0, Final residual = 0, No Iterations 0
DILUPBiCG:  Solving for Ux, Initial residual = 0.1868537569079934, Final residual = 1.2112418593027e-19, No Iterations 2
DILUPBiCG:  Solving for Uy, Initial residual = 0.1868537567299689, Final residual = 1.345999699890474e-19, No Iterations 2
DILUPBiCG:  Solving for Uz, Initial residual = 0.05623281387156804, Final residual = 7.063772348937533e-20, No Iterations 2
DILUPBiCG:  Solving for e, Initial residual = 0.05620181394075886, Final residual = 2.442589695300418e-19, No Iterations 2
DILUPBiCG:  Solving for p, Initial residual = 0.05622465529324169, Final residual = 4.482181886540905e-10, No Iterations 1
pEqnloop: 0
diagonal:  Solving for rho, Initial residual = 0, Final residual = 0, No Iterations 0
time step continuity errors : sum local = 2.434989383342537e-16, global = 2.218391863252788e-16, cumulative = -3.822007676058589e-15
DILUPBiCG:  Solving for p, Initial residual = 1.905691650167928e-08, Final residual = 3.933557857501909e-14, No Iterations 1
pEqnloop: 1
diagonal:  Solving for rho, Initial residual = 0, Final residual = 0, No Iterations 0
time step continuity errors : sum local = 2.022274026445918e-16, global = 1.730360652761626e-16, cumulative = -3.648971610782426e-15
DILUPBiCG:  Solving for k, Initial residual = 0.1411035908328806, Final residual = 2.058180860333482e-19, No Iterations 2
ExecutionTime = 78.65000000000001 s  ClockTime = 187 s

Courant Number mean: 7.70458624299501e-11 max: 0.0001548093385833501
deltaT = 8.916100448255996e-09
Time = 4.74966e-08

PIMPLE: iteration 1
diagonal:  Solving for rho, Initial residual = 0, Final residual = 0, No Iterations 0
DILUPBiCG:  Solving for Ux, Initial residual = 0.1823251653538388, Final residual = 2.094563067368539e-19, No Iterations 2
DILUPBiCG:  Solving for Uy, Initial residual = 0.1823251651224091, Final residual = 2.199696966160755e-19, No Iterations 2
DILUPBiCG:  Solving for Uz, Initial residual = 0.05456977652444558, Final residual = 1.179857253806621e-19, No Iterations 2
DILUPBiCG:  Solving for e, Initial residual = 0.05453258934258658, Final residual = 4.021292347356602e-19, No Iterations 2
DILUPBiCG:  Solving for p, Initial residual = 0.05455995470531175, Final residual = 6.274907385249857e-10, No Iterations 1
pEqnloop: 0
diagonal:  Solving for rho, Initial residual = 0, Final residual = 0, No Iterations 0
time step continuity errors : sum local = 1.408096016553304e-16, global = -6.980105387784167e-17, cumulative = -3.718772664660267e-15
DILUPBiCG:  Solving for p, Initial residual = 1.77683434640111e-08, Final residual = 4.305231576650385e-14, No Iterations 1
pEqnloop: 1
diagonal:  Solving for rho, Initial residual = 0, Final residual = 0, No Iterations 0
time step continuity errors : sum local = 1.534996298965542e-16, global = -1.092010663729427e-16, cumulative = -3.82797373103321e-15
DILUPBiCG:  Solving for k, Initial residual = 0.133546624028484, Final residual = 3.53399826685498e-19, No Iterations 2
ExecutionTime = 85.27 s  ClockTime = 200 s

Courant Number mean: 9.245906186429263e-11 max: 0.0001857409471672456
deltaT = 1.069932053790719e-08
Time = 5.81959e-08

PIMPLE: iteration 1
diagonal:  Solving for rho, Initial residual = 0, Final residual = 0, No Iterations 0
DILUPBiCG:  Solving for Ux, Initial residual = 0.1786887185041145, Final residual = 3.744294849122376e-19, No Iterations 2
DILUPBiCG:  Solving for Uy, Initial residual = 0.1786887183575464, Final residual = 3.752923199420848e-19, No Iterations 2
DILUPBiCG:  Solving for Uz, Initial residual = 0.05325344176874387, Final residual = 2.016146751434312e-19, No Iterations 2
DILUPBiCG:  Solving for e, Initial residual = 0.05320885259949219, Final residual = 6.823700976395462e-19, No Iterations 2
DILUPBiCG:  Solving for p, Initial residual = 0.05324160267743396, Final residual = 8.8372949546721e-10, No Iterations 1
pEqnloop: 0
diagonal:  Solving for rho, Initial residual = 0, Final residual = 0, No Iterations 0
time step continuity errors : sum local = 1.465565109175854e-16, global = -8.691045008231485e-17, cumulative = -3.914884181115525e-15
DILUPBiCG:  Solving for p, Initial residual = 1.183125338590281e-08, Final residual = 3.38843580114557e-14, No Iterations 1
pEqnloop: 1
diagonal:  Solving for rho, Initial residual = 0, Final residual = 0, No Iterations 0
time step continuity errors : sum local = 1.507500793164392e-16, global = -1.203125224723309e-16, cumulative = -4.035196703587856e-15
DILUPBiCG:  Solving for k, Initial residual = 0.1275637286558232, Final residual = 6.310814971697044e-19, No Iterations 2
ExecutionTime = 93.7 s  ClockTime = 219 s

Courant Number mean: 1.109568746991224e-10 max: 0.0002228458487620225
deltaT = 1.283918464548863e-08
Time = 7.10351e-08

PIMPLE: iteration 1
diagonal:  Solving for rho, Initial residual = 0, Final residual = 0, No Iterations 0
DILUPBiCG:  Solving for Ux, Initial residual = 0.1757466902908892, Final residual = 6.965877524468175e-19, No Iterations 2
DILUPBiCG:  Solving for Uy, Initial residual = 0.1757466902547124, Final residual = 6.683503240402749e-19, No Iterations 2
DILUPBiCG:  Solving for Uz, Initial residual = 0.05219967038325741, Final residual = 3.513663396297289e-19, No Iterations 2
DILUPBiCG:  Solving for e, Initial residual = 0.05214604413971057, Final residual = 1.193569122494447e-18, No Iterations 2
DILUPBiCG:  Solving for p, Initial residual = 0.05218545279856279, Final residual = 1.250685371718485e-09, No Iterations 1
pEqnloop: 0
diagonal:  Solving for rho, Initial residual = 0, Final residual = 0, No Iterations 0
time step continuity errors : sum local = 4.562845879693119e-16, global = -4.325390178784277e-16, cumulative = -4.467735721466284e-15
DILUPBiCG:  Solving for p, Initial residual = 9.122526066124169e-09, Final residual = 3.103926594144674e-14, No Iterations 1
pEqnloop: 1
diagonal:  Solving for rho, Initial residual = 0, Final residual = 0, No Iterations 0
time step continuity errors : sum local = 4.36913827847186e-16, global = -4.368797091243905e-16, cumulative = -4.904615430590674e-15
DILUPBiCG:  Solving for k, Initial residual = 0.12276349095575, Final residual = 1.169881126958947e-18, No Iterations 2
ExecutionTime = 110.58 s  ClockTime = 242 s

Courant Number mean: 1.331572376558773e-10 max: 0.0002673531757326263
deltaT = 1.540702157458636e-08
Time = 8.64421e-08

PIMPLE: iteration 1
diagonal:  Solving for rho, Initial residual = 0, Final residual = 0, No Iterations 0
DILUPBiCG:  Solving for Ux, Initial residual = 0.1733503711969485, Final residual = 1.336105252006141e-18, No Iterations 2
DILUPBiCG:  Solving for Uy, Initial residual = 0.173350371289302, Final residual = 1.245374725673536e-18, No Iterations 2
DILUPBiCG:  Solving for Uz, Initial residual = 0.05134778407034483, Final residual = 6.221368788169232e-19, No Iterations 2
DILUPBiCG:  Solving for e, Initial residual = 0.05128354744084064, Final residual = 2.15198581574282e-18, No Iterations 2
DILUPBiCG:  Solving for p, Initial residual = 0.05133080209031231, Final residual = 1.777210083540006e-09, No Iterations 1
pEqnloop: 0
diagonal:  Solving for rho, Initial residual = 0, Final residual = 0, No Iterations 0
time step continuity errors : sum local = 2.589750470312631e-16, global = 2.440780967257419e-16, cumulative = -4.660537333864932e-15
DILUPBiCG:  Solving for p, Initial residual = 9.695870308187339e-09, Final residual = 3.931302853804638e-14, No Iterations 1
pEqnloop: 1
diagonal:  Solving for rho, Initial residual = 0, Final residual = 0, No Iterations 0
time step continuity errors : sum local = 2.488137057941251e-16, global = 2.399185706382963e-16, cumulative = -4.420618763226636e-15
DILUPBiCG:  Solving for k, Initial residual = 0.1188694767517385, Final residual = 2.246544151407674e-18, No Iterations 2
ExecutionTime = 121.46 s  ClockTime = 259 s

Courant Number mean: 1.598022253507402e-10 max: 0.0003207356037221297
deltaT = 1.848842588950363e-08
Time = 1.04931e-07

PIMPLE: iteration 1
diagonal:  Solving for rho, Initial residual = 0, Final residual = 0, No Iterations 0
DILUPBiCG:  Solving for Ux, Initial residual = 0.1713861506165795, Final residual = 2.637067360600702e-18, No Iterations 2
DILUPBiCG:  Solving for Uy, Initial residual = 0.1713861507353132, Final residual = 2.493009791929471e-18, No Iterations 2
DILUPBiCG:  Solving for Uz, Initial residual = 0.05065290346932778, Final residual = 1.113356690440555e-18, No Iterations 2
DILUPBiCG:  Solving for e, Initial residual = 0.05057600079518815, Final residual = 3.998203231315794e-18, No Iterations 2
DILUPBiCG:  Solving for p, Initial residual = 0.05063264285157238, Final residual = 2.534133512795875e-09, No Iterations 1
pEqnloop: 0
diagonal:  Solving for rho, Initial residual = 0, Final residual = 0, No Iterations 0
time step continuity errors : sum local = 3.240283815558574e-16, global = 3.2196354490313e-16, cumulative = -4.098655218323506e-15
DILUPBiCG:  Solving for p, Initial residual = 9.042293480630537e-09, Final residual = 4.395179968261385e-14, No Iterations 1
pEqnloop: 1
diagonal:  Solving for rho, Initial residual = 0, Final residual = 0, No Iterations 0
time step continuity errors : sum local = 2.785654273984652e-16, global = 2.757773584658642e-16, cumulative = -3.822877859857642e-15
DILUPBiCG:  Solving for k, Initial residual = 0.1156813755234258, Final residual = 4.458083488829985e-18, No Iterations 2
ExecutionTime = 126.16 s  ClockTime = 273 s

Courant Number mean: 1.917831942392334e-10 max: 0.0003847571616184497
deltaT = 2.218611106740435e-08
Time = 1.27117e-07

PIMPLE: iteration 1
diagonal:  Solving for rho, Initial residual = 0, Final residual = 0, No Iterations 0
DILUPBiCG:  Solving for Ux, Initial residual = 0.1697659601355875, Final residual = 5.350680160137429e-18, No Iterations 2
DILUPBiCG:  Solving for Uy, Initial residual = 0.169765960228652, Final residual = 5.13660637568549e-18, No Iterations 2
DILUPBiCG:  Solving for Uz, Initial residual = 0.05008109717098078, Final residual = 1.999323692437247e-18, No Iterations 2
DILUPBiCG:  Solving for e, Initial residual = 0.04998905747153792, Final residual = 7.649255407812164e-18, No Iterations 2
DILUPBiCG:  Solving for p, Initial residual = 0.05005698137944696, Final residual = 3.624344802616755e-09, No Iterations 1
pEqnloop: 0
diagonal:  Solving for rho, Initial residual = 0, Final residual = 0, No Iterations 0
time step continuity errors : sum local = 3.07127221395816e-16, global = -1.67516681911458e-16, cumulative = -3.9903945417691e-15
DILUPBiCG:  Solving for p, Initial residual = 9.264955824967743e-09, Final residual = 5.42898408057848e-14, No Iterations 1
pEqnloop: 1
diagonal:  Solving for rho, Initial residual = 0, Final residual = 0, No Iterations 0
time step continuity errors : sum local = 2.496973552283767e-16, global = -2.349629633534048e-16, cumulative = -4.225357505122505e-15
DILUPBiCG:  Solving for k, Initial residual = 0.1130507773643133, Final residual = 9.117330419911505e-18, No Iterations 2
ExecutionTime = 130.15 s  ClockTime = 284 s

Courant Number mean: 2.301711466242698e-10 max: 0.0004615302830703818
deltaT = 2.662333328088522e-08
Time = 1.5374e-07

PIMPLE: iteration 1
diagonal:  Solving for rho, Initial residual = 0, Final residual = 0, No Iterations 0
DILUPBiCG:  Solving for Ux, Initial residual = 0.1684205698267988, Final residual = 1.23598480951101e-17, No Iterations 2
DILUPBiCG:  Solving for Uy, Initial residual = 0.1684205698994334, Final residual = 1.167086113412728e-17, No Iterations 2
DILUPBiCG:  Solving for Uz, Initial residual = 0.04960620294059583, Final residual = 3.564033499642796e-18, No Iterations 2
DILUPBiCG:  Solving for e, Initial residual = 0.04949605549213713, Final residual = 1.505355062249999e-17, No Iterations 2
DILUPBiCG:  Solving for p, Initial residual = 0.0495775397684099, Final residual = 5.197622304750731e-09, No Iterations 1
pEqnloop: 0
diagonal:  Solving for rho, Initial residual = 0, Final residual = 0, No Iterations 0
time step continuity errors : sum local = 7.0308714984196e-16, global = -4.879619020884362e-16, cumulative = -4.713319407210941e-15
DILUPBiCG:  Solving for p, Initial residual = 1.086415048416604e-08, Final residual = 7.703035541482299e-14, No Iterations 1
pEqnloop: 1
diagonal:  Solving for rho, Initial residual = 0, Final residual = 0, No Iterations 0
time step continuity errors : sum local = 5.882540492190145e-16, global = -5.864010519530063e-16, cumulative = -5.299720459163948e-15
DILUPBiCG:  Solving for k, Initial residual = 0.110865574071064, Final residual = 1.916130731374044e-17, No Iterations 2
ExecutionTime = 137.44 s  ClockTime = 306 s

Courant Number mean: 2.762534789235654e-10 max: 0.0005535838593398179
deltaT = 3.194799993706226e-08
Time = 1.85688e-07

PIMPLE: iteration 1
diagonal:  Solving for rho, Initial residual = 0, Final residual = 0, No Iterations 0
DILUPBiCG:  Solving for Ux, Initial residual = 0.167294867370027, Final residual = 3.4059336422458e-17, No Iterations 2
DILUPBiCG:  Solving for Uy, Initial residual = 0.167294867413153, Final residual = 3.270025597265171e-17, No Iterations 2
DILUPBiCG:  Solving for Uz, Initial residual = 0.04920767320446162, Final residual = 6.194256081085401e-18, No Iterations 2
DILUPBiCG:  Solving for e, Initial residual = 0.04907589891569321, Final residual = 3.042923402287667e-17, No Iterations 2
DILUPBiCG:  Solving for p, Initial residual = 0.04917364127333893, Final residual = 7.472530208123856e-09, No Iterations 1
pEqnloop: 0
diagonal:  Solving for rho, Initial residual = 0, Final residual = 0, No Iterations 0
[...]
DILUPBiCG:  Solving for k, Initial residual = 0.009033318201488503, Final residual = 1.357615276342933e-13, No Iterations 6
ExecutionTime = 2607.83 s  ClockTime = 10234 s

APIO_IO_STEP = 52.3242552440006
Courant Number mean: 1.089422014583071e-06 max: 0.2001732077019399
deltaT = 2.740097963860116e-06
Time = 0.000170549

PIMPLE: iteration 1
diagonal:  Solving for rho, Initial residual = 0, Final residual = 0, No Iterations 0
DILUPBiCG:  Solving for Ux, Initial residual = 0.01634286895072606, Final residual = 4.063017608242167e-13, No Iterations 5
DILUPBiCG:  Solving for Uy, Initial residual = 0.0163428137027702, Final residual = 5.005580595630824e-13, No Iterations 5
DILUPBiCG:  Solving for Uz, Initial residual = 0.008070806518335694, Final residual = 2.285061738088503e-13, No Iterations 5
DILUPBiCG:  Solving for e, Initial residual = 0.01129100655303608, Final residual = 8.079726062397699e-13, No Iterations 4
DILUPBiCG:  Solving for p, Initial residual = 0.01468222327584383, Final residual = 2.938658718327144e-05, No Iterations 1
pEqnloop: 0
diagonal:  Solving for rho, Initial residual = 0, Final residual = 0, No Iterations 0
time step continuity errors : sum local = 6.010190449191649e-10, global = -1.47542010567521e-10, cumulative = -3.038628969184832e-09
DILUPBiCG:  Solving for p, Initial residual = 0.0001193810908762164, Final residual = 3.144190178961028e-14, No Iterations 5
pEqnloop: 1
diagonal:  Solving for rho, Initial residual = 0, Final residual = 0, No Iterations 0
time step continuity errors : sum local = 1.721594202769705e-16, global = -7.604135126282465e-17, cumulative = -3.038629045226183e-09
DILUPBiCG:  Solving for k, Initial residual = 0.009100858290344075, Final residual = 2.162238361928371e-14, No Iterations 6
ExecutionTime = 2639.19 s  ClockTime = 10336 s

APIO_IO_STEP = 51.52890810999997
Courant Number mean: 1.115008869574974e-06 max: 0.1996717392974701
deltaT = 2.744602689895855e-06
Time = 0.000173294

PIMPLE: iteration 1
diagonal:  Solving for rho, Initial residual = 0, Final residual = 0, No Iterations 0
DILUPBiCG:  Solving for Ux, Initial residual = 0.01619991336661866, Final residual = 3.540160789361563e-13, No Iterations 5
DILUPBiCG:  Solving for Uy, Initial residual = 0.01619986702582785, Final residual = 4.295183277590181e-13, No Iterations 5
DILUPBiCG:  Solving for Uz, Initial residual = 0.008006870815604451, Final residual = 2.133199595014161e-13, No Iterations 5
DILUPBiCG:  Solving for e, Initial residual = 0.01123260592165323, Final residual = 8.198308035756182e-13, No Iterations 4
DILUPBiCG:  Solving for p, Initial residual = 0.01462795756015163, Final residual = 2.943929785341381e-05, No Iterations 1
pEqnloop: 0
diagonal:  Solving for rho, Initial residual = 0, Final residual = 0, No Iterations 0
time step continuity errors : sum local = 6.127850445939025e-10, global = -1.562448580507817e-10, cumulative = -3.194873903276965e-09
DILUPBiCG:  Solving for p, Initial residual = 0.0001041127782085944, Final residual = 9.348415789903892e-15, No Iterations 5
pEqnloop: 1
diagonal:  Solving for rho, Initial residual = 0, Final residual = 0, No Iterations 0
time step continuity errors : sum local = 1.770125915445456e-16, global = 9.111853047920579e-17, cumulative = -3.194873812158434e-09
DILUPBiCG:  Solving for k, Initial residual = 0.009157637732152937, Final residual = 8.027951534109769e-15, No Iterations 6
ExecutionTime = 2661.83 s  ClockTime = 10440 s

APIO_IO_STEP = 52.83868450200134
Courant Number mean: 1.143941746775958e-06 max: 0.1995704407933798
deltaT = 2.75051022484577e-06
Time = 0.000176044

PIMPLE: iteration 1
diagonal:  Solving for rho, Initial residual = 0, Final residual = 0, No Iterations 0
DILUPBiCG:  Solving for Ux, Initial residual = 0.01607112798444864, Final residual = 3.175935248060096e-13, No Iterations 5
DILUPBiCG:  Solving for Uy, Initial residual = 0.01607108114259097, Final residual = 3.822461206849925e-13, No Iterations 5
DILUPBiCG:  Solving for Uz, Initial residual = 0.007960308648166648, Final residual = 2.040793389501691e-13, No Iterations 5
DILUPBiCG:  Solving for e, Initial residual = 0.01116874198923954, Final residual = 7.689251543563281e-13, No Iterations 4
DILUPBiCG:  Solving for p, Initial residual = 0.01457552804945969, Final residual = 3.011960023998092e-05, No Iterations 1
pEqnloop: 0
diagonal:  Solving for rho, Initial residual = 0, Final residual = 0, No Iterations 0
time step continuity errors : sum local = 6.379560171462546e-10, global = -1.765029961979438e-10, cumulative = -3.371376808356378e-09
DILUPBiCG:  Solving for p, Initial residual = 0.0001087422765277779, Final residual = 6.899608451015254e-14, No Iterations 5
pEqnloop: 1
diagonal:  Solving for rho, Initial residual = 0, Final residual = 0, No Iterations 0
time step continuity errors : sum local = 1.635146137837238e-16, global = 1.20427112011243e-17, cumulative = -3.371376796313667e-09
DILUPBiCG:  Solving for k, Initial residual = 0.009185265139636125, Final residual = 4.522076824662585e-14, No Iterations 5
ExecutionTime = 2690.42 s  ClockTime = 10543 s

APIO_IO_STEP = 55.155625960002
Courant Number mean: 1.173924075158943e-06 max: 0.199618736113321
deltaT = 2.75576359053223e-06
Time = 0.0001788

PIMPLE: iteration 1
diagonal:  Solving for rho, Initial residual = 0, Final residual = 0, No Iterations 0
DILUPBiCG:  Solving for Ux, Initial residual = 0.0159237325515839, Final residual = 2.903872868355845e-13, No Iterations 5
DILUPBiCG:  Solving for Uy, Initial residual = 0.01592369790117547, Final residual = 3.483263775853996e-13, No Iterations 5
DILUPBiCG:  Solving for Uz, Initial residual = 0.007903515034110315, Final residual = 1.963285597515721e-13, No Iterations 5
DILUPBiCG:  Solving for e, Initial residual = 0.01116931440335438, Final residual = 6.676855003584625e-13, No Iterations 4
DILUPBiCG:  Solving for p, Initial residual = 0.01457933027522288, Final residual = 2.980974876060301e-05, No Iterations 1
pEqnloop: 0
diagonal:  Solving for rho, Initial residual = 0, Final residual = 0, No Iterations 0
time step continuity errors : sum local = 6.423533345159047e-10, global = -1.710710261153477e-10, cumulative = -3.542447822429015e-09
DILUPBiCG:  Solving for p, Initial residual = 0.0001032147824126233, Final residual = 1.331104642552717e-13, No Iterations 5
pEqnloop: 1
diagonal:  Solving for rho, Initial residual = 0, Final residual = 0, No Iterations 0
time step continuity errors : sum local = 1.644090482607949e-16, global = 1.127597213653194e-18, cumulative = -3.542447821301417e-09
DILUPBiCG:  Solving for k, Initial residual = 0.009187972319138506, Final residual = 9.32619697283023e-13, No Iterations 5
ExecutionTime = 2718.18 s  ClockTime = 10654 s

APIO_IO_STEP = 53.84947207099867
Courant Number mean: 1.203829226507669e-06 max: 0.1994609990262131
deltaT = 2.763210456165474e-06
Time = 0.000181563

PIMPLE: iteration 1
diagonal:  Solving for rho, Initial residual = 0, Final residual = 0, No Iterations 0
DILUPBiCG:  Solving for Ux, Initial residual = 0.01577928231691677, Final residual = 2.756201183502451e-13, No Iterations 5
DILUPBiCG:  Solving for Uy, Initial residual = 0.01577924540026047, Final residual = 3.301051196380932e-13, No Iterations 5
DILUPBiCG:  Solving for Uz, Initial residual = 0.007825445432314667, Final residual = 1.910917267477964e-13, No Iterations 5
DILUPBiCG:  Solving for e, Initial residual = 0.01124071037377191, Final residual = 6.359362988402335e-13, No Iterations 4
DILUPBiCG:  Solving for p, Initial residual = 0.0145863662057217, Final residual = 2.958712282686256e-05, No Iterations 1
pEqnloop: 0
diagonal:  Solving for rho, Initial residual = 0, Final residual = 0, No Iterations 0
time step continuity errors : sum local = 6.484769166261142e-10, global = -1.69405177502699e-10, cumulative = -3.711852998804116e-09
DILUPBiCG:  Solving for p, Initial residual = 0.0001071693898608966, Final residual = 2.421998897608868e-14, No Iterations 5
pEqnloop: 1
diagonal:  Solving for rho, Initial residual = 0, Final residual = 0, No Iterations 0
time step continuity errors : sum local = 1.732337959181226e-16, global = -7.521061435280198e-17, cumulative = -3.711853074014731e-09
DILUPBiCG:  Solving for k, Initial residual = 0.009176081908941277, Final residual = 1.488319149422682e-14, No Iterations 5
ExecutionTime = 2745.24 s  ClockTime = 10750 s

APIO_IO_STEP = 50.46421447900138
Courant Number mean: 1.235034291043099e-06 max: 0.1990571850673443
deltaT = 2.776298132851241e-06
Time = 0.000184339

PIMPLE: iteration 1
diagonal:  Solving for rho, Initial residual = 0, Final residual = 0, No Iterations 0
DILUPBiCG:  Solving for Ux, Initial residual = 0.0156591663468507, Final residual = 2.725002378744082e-13, No Iterations 5
DILUPBiCG:  Solving for Uy, Initial residual = 0.01565912543406872, Final residual = 3.260968291361161e-13, No Iterations 5
DILUPBiCG:  Solving for Uz, Initial residual = 0.0077873089324351, Final residual = 1.902339865430526e-13, No Iterations 5
DILUPBiCG:  Solving for e, Initial residual = 0.01121629197932482, Final residual = 6.136644117811537e-13, No Iterations 4
DILUPBiCG:  Solving for p, Initial residual = 0.01451961652730445, Final residual = 2.961166465925975e-05, No Iterations 1
pEqnloop: 0
diagonal:  Solving for rho, Initial residual = 0, Final residual = 0, No Iterations 0
time step continuity errors : sum local = 6.600010880947199e-10, global = -1.737927628058769e-10, cumulative = -3.885645836820608e-09
DILUPBiCG:  Solving for p, Initial residual = 0.0001060501932964872, Final residual = 1.97183156904332e-13, No Iterations 5
pEqnloop: 1
diagonal:  Solving for rho, Initial residual = 0, Final residual = 0, No Iterations 0
time step continuity errors : sum local = 1.713789212285973e-16, global = 4.806161616821772e-17, cumulative = -3.885645788758991e-09
DILUPBiCG:  Solving for k, Initial residual = 0.009160478385257754, Final residual = 2.272024935998939e-14, No Iterations 5
ExecutionTime = 2783.96 s  ClockTime = 10861 s

APIO_IO_STEP = 48.22769356799472
Courant Number mean: 1.269376039414747e-06 max: 0.1984564251685858
deltaT = 2.797891910521721e-06
Time = 0.000187137

PIMPLE: iteration 1
diagonal:  Solving for rho, Initial residual = 0, Final residual = 0, No Iterations 0
DILUPBiCG:  Solving for Ux, Initial residual = 0.01562081868407273, Final residual = 2.781293000546831e-13, No Iterations 5
DILUPBiCG:  Solving for Uy, Initial residual = 0.01562078949371535, Final residual = 3.334892851668507e-13, No Iterations 5
DILUPBiCG:  Solving for Uz, Initial residual = 0.007790259287889474, Final residual = 1.946690855951875e-13, No Iterations 5
DILUPBiCG:  Solving for e, Initial residual = 0.01124772648988728, Final residual = 2.720368914445701e-14, No Iterations 5
DILUPBiCG:  Solving for p, Initial residual = 0.01462936730171721, Final residual = 2.961120664232944e-05, No Iterations 1
pEqnloop: 0
diagonal:  Solving for rho, Initial residual = 0, Final residual = 0, No Iterations 0
time step continuity errors : sum local = 6.710761749880605e-10, global = -1.762479000838144e-10, cumulative = -4.061893688842806e-09
DILUPBiCG:  Solving for p, Initial residual = 0.0001040161036198323, Final residual = 5.812478550235267e-14, No Iterations 5
pEqnloop: 1
diagonal:  Solving for rho, Initial residual = 0, Final residual = 0, No Iterations 0
time step continuity errors : sum local = 1.698798452448423e-16, global = 6.006960450454025e-17, cumulative = -4.061893628773202e-09
DILUPBiCG:  Solving for k, Initial residual = 0.009179460080254104, Final residual = 3.502275217098964e-17, No Iterations 6
ExecutionTime = 2807.53 s  ClockTime = 10973 s

APIO_IO_STEP = 62.76209405300142
Courant Number mean: 1.308394761842135e-06 max: 0.2007203588573354
deltaT = 2.787850645992862e-06
Time = 0.000189925

PIMPLE: iteration 1
diagonal:  Solving for rho, Initial residual = 0, Final residual = 0, No Iterations 0
DILUPBiCG:  Solving for Ux, Initial residual = 0.01545021483459373, Final residual = 2.686110285453569e-13, No Iterations 5
DILUPBiCG:  Solving for Uy, Initial residual = 0.01545016558512443, Final residual = 3.251252512278407e-13, No Iterations 5
DILUPBiCG:  Solving for Uz, Initial residual = 0.007699910353491351, Final residual = 1.894953098701007e-13, No Iterations 5
DILUPBiCG:  Solving for e, Initial residual = 0.01123462820764168, Final residual = 2.628540050341674e-14, No Iterations 5
DILUPBiCG:  Solving for p, Initial residual = 0.01452905374733744, Final residual = 2.830618243545166e-05, No Iterations 1
pEqnloop: 0
diagonal:  Solving for rho, Initial residual = 0, Final residual = 0, No Iterations 0
time step continuity errors : sum local = 6.521713588503442e-10, global = -1.586135350933888e-10, cumulative = -4.220507163866591e-09
DILUPBiCG:  Solving for p, Initial residual = 0.0001065849952123898, Final residual = 1.799531508387416e-14, No Iterations 5
pEqnloop: 1
diagonal:  Solving for rho, Initial residual = 0, Final residual = 0, No Iterations 0
time step continuity errors : sum local = 1.886986672729408e-16, global = -1.173934810887243e-16, cumulative = -4.220507281260071e-09
DILUPBiCG:  Solving for k, Initial residual = 0.009120976526291713, Final residual = 1.226845885710315e-14, No Iterations 5
ExecutionTime = 2821.94 s  ClockTime = 11086 s

APIO_IO_STEP = 64.62015114699534
Courant Number mean: 1.332806255939685e-06 max: 0.2018907984843714
deltaT = 2.76174116593893e-06
Time = 0.000192687

PIMPLE: iteration 1
diagonal:  Solving for rho, Initial residual = 0, Final residual = 0, No Iterations 0
DILUPBiCG:  Solving for Ux, Initial residual = 0.01520658538310414, Final residual = 2.46084611550139e-13, No Iterations 5
DILUPBiCG:  Solving for Uy, Initial residual = 0.01520653143891624, Final residual = 3.029739306120562e-13, No Iterations 5
DILUPBiCG:  Solving for Uz, Initial residual = 0.007564067257310335, Final residual = 1.771959124719226e-13, No Iterations 5
DILUPBiCG:  Solving for e, Initial residual = 0.01109812624205105, Final residual = 2.303637915274997e-14, No Iterations 5
DILUPBiCG:  Solving for p, Initial residual = 0.01439536191472306, Final residual = 2.767546316380722e-05, No Iterations 1
pEqnloop: 0
diagonal:  Solving for rho, Initial residual = 0, Final residual = 0, No Iterations 0
time step continuity errors : sum local = 6.480381258541271e-10, global = -1.58455231541783e-10, cumulative = -4.378962512801854e-09
DILUPBiCG:  Solving for p, Initial residual = 9.898062144289289e-05, Final residual = 1.579077858335668e-14, No Iterations 5
pEqnloop: 1
diagonal:  Solving for rho, Initial residual = 0, Final residual = 0, No Iterations 0
time step continuity errors : sum local = 1.701415537805422e-16, global = -6.705284566415923e-17, cumulative = -4.3789625798547e-09
DILUPBiCG:  Solving for k, Initial residual = 0.00904154106184139, Final residual = 1.766729441585031e-14, No Iterations 5
ExecutionTime = 2840.85 s  ClockTime = 11216 s

APIO_IO_STEP = 79.50940111099953
Courant Number mean: 1.348600797026188e-06 max: 0.2016392099054009
deltaT = 2.739289810979311e-06
Time = 0.000195426

PIMPLE: iteration 1
diagonal:  Solving for rho, Initial residual = 0, Final residual = 0, No Iterations 0
DILUPBiCG:  Solving for Ux, Initial residual = 0.01496745240515001, Final residual = 2.246531259443263e-13, No Iterations 5
DILUPBiCG:  Solving for Uy, Initial residual = 0.01496739409996764, Final residual = 2.831179613012398e-13, No Iterations 5
DILUPBiCG:  Solving for Uz, Initial residual = 0.007421256042281178, Final residual = 1.641156745626984e-13, No Iterations 5
DILUPBiCG:  Solving for e, Initial residual = 0.01099160630194958, Final residual = 1.861533954978347e-14, No Iterations 5
DILUPBiCG:  Solving for p, Initial residual = 0.01416150833802013, Final residual = 2.681068132199883e-05, No Iterations 1
pEqnloop: 0
diagonal:  Solving for rho, Initial residual = 0, Final residual = 0, No Iterations 0
time step continuity errors : sum local = 6.379033185319501e-10, global = -1.579865767178577e-10, cumulative = -4.536949156572558e-09
DILUPBiCG:  Solving for p, Initial residual = 0.0001028888330744167, Final residual = 1.350652358851403e-14, No Iterations 5
pEqnloop: 1
diagonal:  Solving for rho, Initial residual = 0, Final residual = 0, No Iterations 0
time step continuity errors : sum local = 1.601589656631643e-16, global = 1.607670754132447e-18, cumulative = -4.536949154964887e-09
DILUPBiCG:  Solving for k, Initial residual = 0.008986296555037198, Final residual = 9.91054628290031e-15, No Iterations 5
ExecutionTime = 2863.97 s  ClockTime = 11322 s

APIO_IO_STEP = 50.08193581100386
Courant Number mean: 1.365314854742621e-06 max: 0.2007926933076795
deltaT = 2.728475589280351e-06
Time = 0.000198155

PIMPLE: iteration 1
diagonal:  Solving for rho, Initial residual = 0, Final residual = 0, No Iterations 0
DILUPBiCG:  Solving for Ux, Initial residual = 0.01477827051376186, Final residual = 2.10906933500829e-13, No Iterations 5
DILUPBiCG:  Solving for Uy, Initial residual = 0.01477822332955444, Final residual = 2.739109108076112e-13, No Iterations 5
DILUPBiCG:  Solving for Uz, Initial residual = 0.00732437634109006, Final residual = 1.539548842238361e-13, No Iterations 5
DILUPBiCG:  Solving for e, Initial residual = 0.01087579388249073, Final residual = 6.754826515717963e-14, No Iterations 5
DILUPBiCG:  Solving for p, Initial residual = 0.01401916514382316, Final residual = 2.652753575229927e-05, No Iterations 1
pEqnloop: 0
diagonal:  Solving for rho, Initial residual = 0, Final residual = 0, No Iterations 0
time step continuity errors : sum local = 6.413017304311846e-10, global = -1.632877047776321e-10, cumulative = -4.700236859742518e-09
DILUPBiCG:  Solving for p, Initial residual = 9.55824809649801e-05, Final residual = 1.599662055347549e-14, No Iterations 5
pEqnloop: 1
diagonal:  Solving for rho, Initial residual = 0, Final residual = 0, No Iterations 0
time step continuity errors : sum local = 1.64603160988856e-16, global = 4.472085881541579e-17, cumulative = -4.70023681502166e-09
DILUPBiCG:  Solving for k, Initial residual = 0.00896977898122853, Final residual = 4.514057709504767e-13, No Iterations 5
ExecutionTime = 2979.34 s  ClockTime = 11522 s

APIO_IO_STEP = 63.7295072489942
Courant Number mean: 1.387746226999291e-06 max: 0.2003269116579622
deltaT = 2.72402301487973e-06
Time = 0.000200879

PIMPLE: iteration 1
diagonal:  Solving for rho, Initial residual = 0, Final residual = 0, No Iterations 0
DILUPBiCG:  Solving for Ux, Initial residual = 0.01464910461516115, Final residual = 2.045037297387434e-13, No Iterations 5
DILUPBiCG:  Solving for Uy, Initial residual = 0.01464907249594619, Final residual = 2.748223981439231e-13, No Iterations 5
DILUPBiCG:  Solving for Uz, Initial residual = 0.007272434805391166, Final residual = 1.464608968485815e-13, No Iterations 5
DILUPBiCG:  Solving for e, Initial residual = 0.01085346687429027, Final residual = 2.059315758529517e-13, No Iterations 5
DILUPBiCG:  Solving for p, Initial residual = 0.01395317499791471, Final residual = 2.644505013733243e-05, No Iterations 1
pEqnloop: 0
diagonal:  Solving for rho, Initial residual = 0, Final residual = 0, No Iterations 0
time step continuity errors : sum local = 6.49520703561208e-10, global = -1.674949054540593e-10, cumulative = -4.867731720475719e-09
DILUPBiCG:  Solving for p, Initial residual = 9.50784870414619e-05, Final residual = 9.89002573848382e-15, No Iterations 5
pEqnloop: 1
diagonal:  Solving for rho, Initial residual = 0, Final residual = 0, No Iterations 0
time step continuity errors : sum local = 1.612113383171049e-16, global = 4.189643002459519e-17, cumulative = -4.867731678579288e-09
DILUPBiCG:  Solving for k, Initial residual = 0.008981219716353255, Final residual = 6.12847353326067e-13, No Iterations 5
ExecutionTime = 3021.01 s  ClockTime = 11634 s

APIO_IO_STEP = 52.14418583600127
Terminating ...
End

APIO_IO_TIME = 4914.603908153676
Finalising parallel run
