/*---------------------------------------------------------------------------*\
| =========                 |                                                 |
| \\      /  F ield         | OpenFOAM: The Open Source CFD Toolbox           |
|  \\    /   O peration     | Version:  v1912                                 |
|   \\  /    A nd           | Website:  www.openfoam.com                      |
|    \\/     M anipulation  |                                                 |
\*---------------------------------------------------------------------------*/
Build  : _f3950763fe-20191219 OPENFOAM=1912
Arch   : "LSB;label=32;scalar=64"
Exec   : rhoPimpleFoam_METRICS -parallel
Date   : Oct 27 2020
Time   : 15:37:01
Host   : r43c3t2n2
PID    : 93770
I/O    : uncollated
Case   : /lustre/cray/ws9/2/ws/hpcmcast-ashee2/HAWK/apio_128M/1024
nProcs : 1024
Hosts  :
(
    (r43c3t2n2 128)
    (r43c3t2n3 128)
    (r43c3t2n4 128)
    (r43c3t3n1 128)
    (r43c3t3n2 128)
    (r43c3t3n3 128)
    (r43c3t3n4 128)
    (r44c1t5n4 128)
)
Pstream initialized with:
    floatTransfer      : 0
    nProcsSimpleSum    : 0
    commsType          : nonBlocking
    polling iterations : 0
trapFpe: Floating point exception trapping enabled (FOAM_SIGFPE).
fileModificationChecking : Monitoring run-time modified files using timeStampMaster (fileModificationSkew 10)
allowSystemOperations : Allowing user-supplied system call operations

// * * * * * * * * * * * * * * * * * * * * * * * * * * * * * * * * * * * * * //
Create time

Create mesh for time = 0


PIMPLE: Operating solver in PISO mode

Reading thermophysical properties

Selecting thermodynamics package 
{
    type            hePsiThermo;
    mixture         pureMixture;
    transport       const;
    thermo          eConst;
    equationOfState perfectGas;
    specie          specie;
    energy          sensibleInternalEnergy;
}

Reading field U

Reading/calculating face flux field phi

--> FOAM Warning : 
    From function Foam::pressureControl::pressureControl(const volScalarField&, const volScalarField&, const Foam::dictionary&, bool)
    in file cfdTools/general/pressureControl/pressureControl.C at line 123
    Reading "/lustre/cray/ws9/2/ws/hpcmcast-ashee2/HAWK/apio_128M/1024/system/fvSolution.PIMPLE"
    'rhoMax' specified rather than 'pMax' or 'pMaxFactor'
    This is supported for backward-compatibility but 'pMax' or 'pMaxFactor' are more reliable.
--> FOAM Warning : 
    From function Foam::pressureControl::pressureControl(const volScalarField&, const volScalarField&, const Foam::dictionary&, bool)
    in file cfdTools/general/pressureControl/pressureControl.C at line 178
    Reading "/lustre/cray/ws9/2/ws/hpcmcast-ashee2/HAWK/apio_128M/1024/system/fvSolution.PIMPLE"
    'rhoMin' specified rather than 'pMin' or 'pMinFactor'
    This is supported for backward-compatibility but 'pMin' or 'pMinFactor' are more reliable.
pressureControl
    pMax 1726187.557059955
    pMin 4747.015781914877

Creating turbulence model

Selecting turbulence model type LES
Selecting LES turbulence model kEqn
Selecting LES delta type cubeRootVol
LES
{
    LESModel        kEqn;
    turbulence      on;
    printCoeffs     on;
    delta           cubeRootVol;
    cubeRootVolCoeffs
    {
        deltaCoeff      1;
    }
    PrandtlCoeffs
    {
        delta           cubeRootVol;
        cubeRootVolCoeffs
        {
            deltaCoeff      1;
        }
        smoothCoeffs
        {
            delta           cubeRootVol;
            cubeRootVolCoeffs
            {
                deltaCoeff      1;
            }
            maxDeltaRatio   1.1;
        }
        Cdelta          0.158;
    }
    vanDriestCoeffs
    {
        delta           cubeRootVol;
        cubeRootVolCoeffs
        {
            deltaCoeff      1;
        }
        smoothCoeffs
        {
            delta           cubeRootVol;
            cubeRootVolCoeffs
            {
                deltaCoeff      1;
            }
            maxDeltaRatio   1.1;
        }
        Aplus           26;
        Cdelta          0.158;
    }
    smoothCoeffs
    {
        delta           cubeRootVol;
        cubeRootVolCoeffs
        {
            deltaCoeff      1;
        }
        maxDeltaRatio   1.1;
    }
    Ce              1.048;
    Ck              0.094;
}

Creating field dpdt

Creating field kinetic energy K

No MRF models present

procNo = 20
procNo = 21
procNo = 22
procNo = 23
procNo = 24
procNo = 25
procNo = 26
procNo = 27
procNo = 28
procNo = 29
procNo = 30
procNo = 31
procNo = 32
procNo = 33
procNo = 34
procNo = 35
procNo = 36
procNo = 37
procNo = 38
procNo = 39
procNo = 40
procNo = 41
procNo = 42
procNo = 43
procNo = 44
procNo = 45
procNo = 46
procNo = 47
procNo = 48
procNo = 49
procNo = 50
procNo = 51
procNo = 52
procNo = 53
procNo = 54
procNo = 55
procNo = 56
procNo = 57
procNo = 58
procNo = 59
procNo = 60
procNo = 61
procNo = 62
procNo = 63
procNo = 64
procNo = 65
procNo = 66
procNo = 67
procNo = 68
procNo = 69
procNo = 70
procNo = 71
procNo = 72
procNo = 73
procNo = 74
procNo = 75
procNo = 76
procNo = 77
procNo = 78
procNo = 79
procNo = 80
procNo = 81
procNo = 82
procNo = 83
procNo = 84
procNo = 85
procNo = 86
procNo = 87
procNo = 88
procNo = 89
procNo = 90
procNo = 91
procNo = 92
procNo = 93
procNo = 94
procNo = 95
procNo = 96
procNo = 97
procNo = 98
procNo = 99
procNo = 100
procNo = 101
procNo = 102
procNo = 103
procNo = 104
procNo = 105
procNo = 106
procNo = 107
procNo = 108
procNo = 109
procNo = 110
procNo = 111
procNo = 112
procNo = 113
procNo = 114
procNo = 115
procNo = 116
procNo = 117
procNo = 118
procNo = 119
procNo = 120
procNo = 121
procNo = 122
procNo = 123
procNo = 124
procNo = 125
procNo = 126
procNo = 127
No finite volume options present
procNo = 0
masterNo = 0
procNo = 1
procNo = 2
procNo = 3
procNo = 4
procNo = 5
procNo = 6
procNo = 7
procNo = 8
procNo = 9
procNo = 10
procNo = 11
procNo = 12
procNo = 13
procNo = 14
procNo = 15
procNo = 16
procNo = 17
procNo = 18
procNo = 19
procNo = 512
procNo = 640
procNo = 256
procNo = 384
procNo = 128
procNo = 896
procNo = 513
procNo = 641
procNo = 768
procNo = 257
procNo = 385
procNo = 129
procNo = 897
procNo = 514
procNo = 642
procNo = 769
procNo = 258
procNo = 386
procNo = 130
procNo = 898
procNo = 515
procNo = 643
procNo = 770
procNo = 259
procNo = 387
procNo = 131
procNo = 899
procNo = 516
procNo = 644
procNo = 771
procNo = 260
procNo = 388
procNo = 132
procNo = 900
procNo = 517
procNo = 645
procNo = 772
procNo = 261
procNo = 389
procNo = 133
procNo = 901
procNo = 518
procNo = 646
procNo = 773
procNo = 262
procNo = 390
procNo = 134
procNo = 902
procNo = 519
procNo = 647
procNo = 774
procNo = 263
procNo = 391
procNo = 135
procNo = 903
procNo = 520
procNo = 648
procNo = 775
procNo = 264
procNo = 392
procNo = 136
procNo = 904
procNo = 521
procNo = 649
procNo = 776
procNo = 265
procNo = 393
procNo = 137
procNo = 905
procNo = 522
procNo = 650
procNo = 777
procNo = 266
procNo = 394
procNo = 906
procNo = 523
procNo = 651
procNo = 778
procNo = 267
procNo = 138
procNo = 907
procNo = 524
procNo = 652
procNo = 779
procNo = 268
procNo = 395
procNo = 139
procNo = 525
procNo = 653
procNo = 780
procNo = 396
procNo = 140
procNo = 908
procNo = 526
procNo = 654
procNo = 397
procNo = 141
procNo = 909
procNo = 527
procNo = 655
procNo = 781
procNo = 269
procNo = 398
procNo = 142
procNo = 910
procNo = 528
procNo = 656
procNo = 782
procNo = 270
procNo = 399
procNo = 143
procNo = 911
procNo = 529
procNo = 657
procNo = 783
procNo = 271
procNo = 400
procNo = 144
procNo = 912
procNo = 530
procNo = 658
procNo = 784
procNo = 272
procNo = 401
procNo = 145
procNo = 913
procNo = 531
procNo = 659
procNo = 785
procNo = 273
procNo = 402
procNo = 146
procNo = 914
procNo = 532
procNo = 660
procNo = 786
procNo = 274
procNo = 403
procNo = 147
procNo = 915
procNo = 533
procNo = 661
procNo = 787
procNo = 275
procNo = 404
procNo = 148
procNo = 916
procNo = 534
procNo = 662
procNo = 788
procNo = 276
procNo = 405
procNo = 149
procNo = 917
procNo = 535
procNo = 663
procNo = 789
procNo = 277
procNo = 406
procNo = 150
procNo = 918
procNo = 536
procNo = 664
procNo = 790
procNo = 278
procNo = 407
procNo = 151
procNo = 919
procNo = 537
procNo = 665
procNo = 791
procNo = 279
procNo = 408
procNo = 152
procNo = 920
procNo = 538
procNo = 666
procNo = 792
procNo = 280
procNo = 409
procNo = 153
procNo = 921
procNo = 539
procNo = 667
procNo = 793
procNo = 281
procNo = 410
procNo = 154
procNo = 922
procNo = 540
procNo = 668
procNo = 794
procNo = 282
procNo = 411
procNo = 155
procNo = 923
procNo = 541
procNo = 669
procNo = 795
procNo = 283
procNo = 412
procNo = 156
procNo = 924
procNo = 542
procNo = 670
procNo = 796
procNo = 284
procNo = 413
procNo = 157
procNo = 925
procNo = 543
procNo = 671
procNo = 797
procNo = 285
procNo = 414
procNo = 158
procNo = 926
procNo = 544
procNo = 672
procNo = 798
procNo = 286
procNo = 415
procNo = 159
procNo = 927
procNo = 545
procNo = 673
procNo = 799
procNo = 287
procNo = 416
procNo = 160
procNo = 928
procNo = 546
procNo = 674
procNo = 800
procNo = 288
procNo = 417
procNo = 161
procNo = 929
procNo = 547
procNo = 675
procNo = 801
procNo = 289
procNo = 418
procNo = 162
procNo = 930
procNo = 548
procNo = 676
procNo = 802
procNo = 290
procNo = 419
procNo = 163
procNo = 931
procNo = 549
procNo = 677
procNo = 803
procNo = 291
procNo = 420
procNo = 164
procNo = 932
procNo = 550
procNo = 678
procNo = 804
procNo = 292
procNo = 421
procNo = 165
procNo = 933
procNo = 551
procNo = 679
procNo = 805
procNo = 293
procNo = 422
procNo = 166
procNo = 934
procNo = 552
procNo = 680
procNo = 806
procNo = 294
procNo = 423
procNo = 167
procNo = 935
procNo = 553
procNo = 681
procNo = 807
procNo = 295
procNo = 424
procNo = 168
procNo = 936
procNo = 554
procNo = 682
procNo = 808
procNo = 296
procNo = 425
procNo = 169
procNo = 937
procNo = 555
procNo = 683
procNo = 809
procNo = 297
procNo = 426
procNo = 170
procNo = 938
procNo = 556
procNo = 684
procNo = 810
procNo = 298
procNo = 427
procNo = 171
procNo = 939
procNo = 557
procNo = 685
procNo = 811
procNo = 299
procNo = 428
procNo = 172
procNo = 940
procNo = 558
procNo = 686
procNo = 812
procNo = 300
procNo = 429
procNo = 173
procNo = 941
procNo = 559
procNo = 687
procNo = 813
procNo = 301
procNo = 430
procNo = 174
procNo = 942
procNo = 560
procNo = 688
procNo = 814
procNo = 302
procNo = 431
procNo = 175
procNo = 943
procNo = 561
procNo = 689
procNo = 815
procNo = 303
procNo = 432
procNo = 176
procNo = 944
procNo = 562
procNo = 690
procNo = 816
procNo = 304
procNo = 433
procNo = 177
procNo = 945
procNo = 563
procNo = 691
procNo = 817
procNo = 305
procNo = 434
procNo = 178
procNo = 946
procNo = 564
procNo = 692
procNo = 818
procNo = 306
procNo = 435
procNo = 179
procNo = 947
procNo = 565
procNo = 693
procNo = 819
procNo = 307
procNo = 436
procNo = 180
procNo = 948
procNo = 566
procNo = 694
procNo = 820
procNo = 308
procNo = 437
procNo = 181
procNo = 949
procNo = 567
procNo = 695
procNo = 821
procNo = 309
procNo = 438
procNo = 182
procNo = 950
procNo = 568
procNo = 696
procNo = 822
procNo = 310
procNo = 439
procNo = 183
procNo = 951
procNo = 569
procNo = 697
procNo = 823
procNo = 311
procNo = 440
procNo = 184
procNo = 952
procNo = 570
procNo = 698
procNo = 824
procNo = 312
procNo = 441
procNo = 185
procNo = 953
procNo = 571
procNo = 699
procNo = 825
procNo = 313
procNo = 442
procNo = 186
procNo = 954
procNo = 572
procNo = 700
procNo = 826
procNo = 314
procNo = 443
procNo = 187
procNo = 955
procNo = 573
procNo = 701
procNo = 827
procNo = 315
procNo = 444
procNo = 188
procNo = 956
procNo = 574
procNo = 702
procNo = 828
procNo = 316
procNo = 445
procNo = 189
procNo = 957
procNo = 575
procNo = 703
procNo = 829
procNo = 317
procNo = 446
procNo = 190
procNo = 958
procNo = 576
procNo = 704
procNo = 830
procNo = 318
procNo = 447
procNo = 191
procNo = 959
procNo = 577
procNo = 705
procNo = 831
procNo = 319
procNo = 448
procNo = 192
procNo = 960
procNo = 578
procNo = 706
procNo = 832
procNo = 320
procNo = 449
procNo = 193
procNo = 961
procNo = 579
procNo = 707
procNo = 833
procNo = 321
procNo = 450
procNo = 194
procNo = 962
procNo = 580
procNo = 708
procNo = 834
procNo = 322
procNo = 451
procNo = 195
procNo = 963
procNo = 581
procNo = 709
procNo = 835
procNo = 323
procNo = 452
procNo = 196
procNo = 964
procNo = 582
procNo = 710
procNo = 836
procNo = 324
procNo = 453
procNo = 197
procNo = 965
procNo = 583
procNo = 711
procNo = 837
procNo = 325
procNo = 454
procNo = 198
procNo = 966
procNo = 584
procNo = 712
procNo = 838
procNo = 326
procNo = 455
procNo = 199
procNo = 967
procNo = 585
procNo = 713
procNo = 839
procNo = 327
procNo = 456
procNo = 200
procNo = 968
procNo = 586
procNo = 714
procNo = 840
procNo = 328
procNo = 457
procNo = 201
procNo = 969
Courant Number mean: 1.036765635763725e-11 max: 2.085039370078742e-05
procNo = 587
procNo = 715
procNo = 841
procNo = 329
procNo = 458
procNo = 202
procNo = 970
procNo = 588
procNo = 716
procNo = 842
procNo = 330
procNo = 459
procNo = 203
procNo = 971
procNo = 589
procNo = 717
procNo = 843
procNo = 331
procNo = 460
procNo = 204
procNo = 972
procNo = 590
procNo = 718
procNo = 844
procNo = 332
procNo = 461
procNo = 205
procNo = 973
procNo = 591
procNo = 719
procNo = 845
procNo = 333
procNo = 462
procNo = 206
procNo = 974
procNo = 592
procNo = 720
procNo = 846
procNo = 334
procNo = 463
procNo = 207
procNo = 975
procNo = 593
procNo = 721
procNo = 847
procNo = 335
procNo = 464
procNo = 208
procNo = 976
procNo = 594
procNo = 722
procNo = 848
procNo = 336
procNo = 465
procNo = 209
procNo = 977
procNo = 595
procNo = 723
procNo = 849
procNo = 337
procNo = 466
procNo = 210
procNo = 978
procNo = 596
procNo = 724
procNo = 850
procNo = 338
procNo = 467
procNo = 211
procNo = 979
procNo = 597
procNo = 725
procNo = 851
procNo = 339
procNo = 468
procNo = 212
procNo = 980
procNo = 598
procNo = 726
procNo = 852
procNo = 340
procNo = 469
procNo = 213
procNo = 981
procNo = 599
procNo = 727
procNo = 853
procNo = 341
procNo = 470
procNo = 214
procNo = 982
procNo = 600
procNo = 728
procNo = 854
procNo = 342
procNo = 471
procNo = 215
procNo = 983
procNo = 601
procNo = 729
procNo = 855
procNo = 343
procNo = 472
procNo = 216
procNo = 984
procNo = 602
procNo = 730
procNo = 856
procNo = 344
procNo = 473
procNo = 217
procNo = 985
procNo = 603
procNo = 731
procNo = 857
procNo = 345
procNo = 474
procNo = 218
procNo = 986
procNo = 604
procNo = 732
procNo = 858
procNo = 346
procNo = 475
procNo = 219
procNo = 987
procNo = 605
procNo = 733
procNo = 859
procNo = 347
procNo = 476
procNo = 220
procNo = 988
procNo = 606
procNo = 734
procNo = 860
procNo = 348
procNo = 477
procNo = 221
procNo = 989
procNo = 607
procNo = 735
procNo = 861
procNo = 349
procNo = 478
procNo = 222
procNo = 990
procNo = 608
procNo = 736
procNo = 862
procNo = 350
procNo = 479
procNo = 223
procNo = 991
procNo = 609
procNo = 737
procNo = 863
procNo = 351
procNo = 480
procNo = 224
procNo = 992
procNo = 610
procNo = 738
procNo = 864
procNo = 352
procNo = 481
procNo = 225
procNo = 993
procNo = 611
procNo = 739
procNo = 865
procNo = 353
procNo = 482
procNo = 226
procNo = 994
procNo = 612
procNo = 740
procNo = 866
procNo = 354
procNo = 483
procNo = 227
procNo = 995
procNo = 613
procNo = 741
procNo = 867
procNo = 355
procNo = 484
procNo = 228
procNo = 996
procNo = 614
procNo = 742
procNo = 868
procNo = 356
procNo = 485
procNo = 229
procNo = 997
procNo = 615
procNo = 743
procNo = 869
procNo = 357
procNo = 486
procNo = 230
procNo = 998
procNo = 616
procNo = 744
procNo = 870
procNo = 358
procNo = 487
procNo = 231
procNo = 999
procNo = 617
procNo = 745
procNo = 871
procNo = 359
procNo = 488
procNo = 232
procNo = 1000
procNo = 618
procNo = 746
procNo = 872
procNo = 360
procNo = 489
procNo = 233
procNo = 1001
procNo = 619
procNo = 747
procNo = 873
procNo = 361
procNo = 490
procNo = 234
procNo = 1002
procNo = 620
procNo = 748
procNo = 874
procNo = 362
procNo = 491
procNo = 235
procNo = 1003
procNo = 621
procNo = 749
procNo = 875
procNo = 363
procNo = 492
procNo = 236
procNo = 1004
procNo = 622
procNo = 750
procNo = 876
procNo = 364
procNo = 493
procNo = 237
procNo = 1005
procNo = 623
procNo = 751
procNo = 877
procNo = 365
procNo = 494
procNo = 238
procNo = 1006
procNo = 624
procNo = 752
procNo = 878
procNo = 366
procNo = 495
procNo = 239
procNo = 1007
procNo = 625
procNo = 753
procNo = 879
procNo = 367
procNo = 496
procNo = 240
procNo = 1008
procNo = 626
procNo = 754
procNo = 880
procNo = 368
procNo = 497
procNo = 241
procNo = 1009
procNo = 627
procNo = 755
procNo = 881
procNo = 369
procNo = 498
procNo = 242
procNo = 1010
procNo = 628
procNo = 756
procNo = 882
procNo = 370
procNo = 499
procNo = 243
procNo = 1011
procNo = 629
procNo = 757
procNo = 883
procNo = 371
procNo = 500
procNo = 244
procNo = 1012
procNo = 630
procNo = 758
procNo = 884
procNo = 372
procNo = 501
procNo = 245
procNo = 1013
procNo = 631
procNo = 759
procNo = 885
procNo = 373
procNo = 502
procNo = 246
procNo = 1014
procNo = 632
procNo = 760
procNo = 886
procNo = 374
procNo = 503
procNo = 247
procNo = 1015
procNo = 633
procNo = 761
procNo = 887
procNo = 375
procNo = 504
procNo = 248
procNo = 1016
procNo = 634
procNo = 762
procNo = 888
procNo = 376
procNo = 505
procNo = 249
procNo = 1017
procNo = 635
procNo = 763
procNo = 889
procNo = 377
procNo = 506
procNo = 250
procNo = 1018
procNo = 636
procNo = 764
procNo = 890
procNo = 378
procNo = 507
procNo = 251
procNo = 1019
procNo = 637
procNo = 765
procNo = 891
procNo = 379
procNo = 508
procNo = 252
procNo = 1020
procNo = 638
procNo = 766
procNo = 892
procNo = 380
procNo = 509
procNo = 253
procNo = 1021
procNo = 639
procNo = 767
procNo = 893
procNo = 381
procNo = 510
procNo = 254
procNo = 1022
procNo = 894
procNo = 382
procNo = 511
procNo = 255
procNo = 1023
procNo = 895
procNo = 383

Starting time loop

Courant Number mean: 1.036765635763725e-11 max: 2.085039370078742e-05
deltaT = 1.2e-09
Time = 1.2e-09

PIMPLE: iteration 1
diagonal:  Solving for rho, Initial residual = 0, Final residual = 0, No Iterations 0
DILUPBiCG:  Solving for Ux, Initial residual = 1, Final residual = 1.800630449110034e-20, No Iterations 2
DILUPBiCG:  Solving for Uy, Initial residual = 1, Final residual = 2.845880164098443e-20, No Iterations 2
DILUPBiCG:  Solving for Uz, Initial residual = 1, Final residual = 3.534452934079979e-20, No Iterations 2
DILUPBiCG:  Solving for e, Initial residual = 0.9999960228236863, Final residual = 1.42158890855208e-19, No Iterations 2
DILUPBiCG:  Solving for p, Initial residual = 0.999998528452542, Final residual = 4.931630959597361e-10, No Iterations 1
diagonal:  Solving for rho, Initial residual = 0, Final residual = 0, No Iterations 0
time step continuity errors : sum local = 2.48296203179604e-16, global = -2.480230065217711e-16, cumulative = -2.480230065217711e-16
DILUPBiCG:  Solving for p, Initial residual = 4.655800886149645e-07, Final residual = 7.449369273026558e-16, No Iterations 1
diagonal:  Solving for rho, Initial residual = 0, Final residual = 0, No Iterations 0
time step continuity errors : sum local = 2.662597372084555e-16, global = -2.655854214592859e-16, cumulative = -5.13608427981057e-16
DILUPBiCG:  Solving for k, Initial residual = 0.9999999803404043, Final residual = 3.535703174906823e-20, No Iterations 2
ExecutionTime = 34.41 s  ClockTime = 220 s

ORIG_COMP_STEP = 2.87587224
ORIG_IO_STEP = 16.847803794
Courant Number mean: 1.244124999697906e-11 max: 2.501990921293873e-05
deltaT = 1.44e-09
Time = 2.64e-09

PIMPLE: iteration 1
diagonal:  Solving for rho, Initial residual = 0, Final residual = 0, No Iterations 0
DILUPBiCG:  Solving for Ux, Initial residual = 0.3749195246763714, Final residual = 4.095371235104009e-21, No Iterations 2
DILUPBiCG:  Solving for Uy, Initial residual = 0.3749195246144995, Final residual = 6.4547135559982e-21, No Iterations 2
DILUPBiCG:  Solving for Uz, Initial residual = 0.2307596483096125, Final residual = 4.951504813334349e-21, No Iterations 2
DILUPBiCG:  Solving for e, Initial residual = 0.2307552715726446, Final residual = 1.987913003088778e-20, No Iterations 2
DILUPBiCG:  Solving for p, Initial residual = 0.2307627928085607, Final residual = 6.862361419979813e-11, No Iterations 1
diagonal:  Solving for rho, Initial residual = 0, Final residual = 0, No Iterations 0
time step continuity errors : sum local = 5.443437411643772e-16, global = -5.443002382497819e-16, cumulative = -1.057908666230839e-15
DILUPBiCG:  Solving for p, Initial residual = 3.198850014264708e-07, Final residual = 3.205828881393769e-14, No Iterations 1
diagonal:  Solving for rho, Initial residual = 0, Final residual = 0, No Iterations 0
time step continuity errors : sum local = 4.815658642340229e-16, global = -4.815610119632488e-16, cumulative = -1.539469678194088e-15
DILUPBiCG:  Solving for k, Initial residual = 0.7612497697859771, Final residual = 1.636156390687061e-20, No Iterations 2
ExecutionTime = 46.55 s  ClockTime = 250 s

ORIG_COMP_STEP = 12.171536907
ORIG_IO_STEP = 16.171441381
Courant Number mean: 1.492959019326652e-11 max: 3.002308059560315e-05
deltaT = 1.728e-09
Time = 4.368e-09

PIMPLE: iteration 1
diagonal:  Solving for rho, Initial residual = 0, Final residual = 0, No Iterations 0
DILUPBiCG:  Solving for Ux, Initial residual = 0.3231075335912518, Final residual = 5.173776614484275e-21, No Iterations 2
DILUPBiCG:  Solving for Uy, Initial residual = 0.3231075354355437, Final residual = 8.089222903240864e-21, No Iterations 2
DILUPBiCG:  Solving for Uz, Initial residual = 0.140614145018672, Final residual = 4.432017050842379e-21, No Iterations 2
DILUPBiCG:  Solving for e, Initial residual = 0.1406095808689621, Final residual = 1.769671531756849e-20, No Iterations 2
DILUPBiCG:  Solving for p, Initial residual = 0.1406152032720898, Final residual = 6.022692692432733e-11, No Iterations 1
diagonal:  Solving for rho, Initial residual = 0, Final residual = 0, No Iterations 0
time step continuity errors : sum local = 6.594687248728819e-16, global = -6.59411670280191e-16, cumulative = -2.198881348474279e-15
DILUPBiCG:  Solving for p, Initial residual = 2.016269677491974e-07, Final residual = 1.557314394304043e-13, No Iterations 1
diagonal:  Solving for rho, Initial residual = 0, Final residual = 0, No Iterations 0
time step continuity errors : sum local = 6.449541913771289e-16, global = -6.449540914515043e-16, cumulative = -2.843835439925783e-15
DILUPBiCG:  Solving for k, Initial residual = 0.5223923020670069, Final residual = 1.652669853845316e-20, No Iterations 2
ExecutionTime = 51.09 s  ClockTime = 272 s

ORIG_COMP_STEP = 4.498226873999997
ORIG_IO_STEP = 25.00791273500001
Courant Number mean: 1.791563870942343e-11 max: 3.602653054273846e-05
deltaT = 2.0736e-09
Time = 6.4416e-09

PIMPLE: iteration 1
diagonal:  Solving for rho, Initial residual = 0, Final residual = 0, No Iterations 0
DILUPBiCG:  Solving for Ux, Initial residual = 0.2861773920225993, Final residual = 6.812611574723377e-21, No Iterations 2
DILUPBiCG:  Solving for Uy, Initial residual = 0.2861773930741808, Final residual = 1.050139087390308e-20, No Iterations 2
DILUPBiCG:  Solving for Uz, Initial residual = 0.1060777872418427, Final residual = 4.988362666965388e-21, No Iterations 2
DILUPBiCG:  Solving for e, Initial residual = 0.1060709241874318, Final residual = 1.972906615629812e-20, No Iterations 2
DILUPBiCG:  Solving for p, Initial residual = 0.1060778399081083, Final residual = 6.544570433366868e-11, No Iterations 1
diagonal:  Solving for rho, Initial residual = 0, Final residual = 0, No Iterations 0
time step continuity errors : sum local = 3.566331760048615e-16, global = -3.544462684414465e-16, cumulative = -3.19828170836723e-15
DILUPBiCG:  Solving for p, Initial residual = 1.45908109767651e-07, Final residual = 3.190311262129016e-13, No Iterations 1
diagonal:  Solving for rho, Initial residual = 0, Final residual = 0, No Iterations 0
time step continuity errors : sum local = 3.888499336100591e-16, global = -3.884164856402019e-16, cumulative = -3.586698194007432e-15
DILUPBiCG:  Solving for k, Initial residual = 0.3755560654066561, Final residual = 1.779001763918827e-20, No Iterations 2
ExecutionTime = 54.33 s  ClockTime = 302 s

ORIG_COMP_STEP = 3.166322359000006
ORIG_IO_STEP = 19.52134596
Courant Number mean: 2.149895558664216e-11 max: 4.323015923841612e-05
deltaT = 2.48832e-09
Time = 8.92992e-09

PIMPLE: iteration 1
diagonal:  Solving for rho, Initial residual = 0, Final residual = 0, No Iterations 0
DILUPBiCG:  Solving for Ux, Initial residual = 0.258011491613973, Final residual = 9.267193301249531e-21, No Iterations 2
DILUPBiCG:  Solving for Uy, Initial residual = 0.2580114928107205, Final residual = 1.399660045772703e-20, No Iterations 2
DILUPBiCG:  Solving for Uz, Initial residual = 0.08805262551101523, Final residual = 6.278464350568639e-21, No Iterations 2
DILUPBiCG:  Solving for e, Initial residual = 0.0880437743970348, Final residual = 2.450208987008362e-20, No Iterations 2
DILUPBiCG:  Solving for p, Initial residual = 0.08805159466933557, Final residual = 7.825985326050452e-11, No Iterations 1
diagonal:  Solving for rho, Initial residual = 0, Final residual = 0, No Iterations 0
time step continuity errors : sum local = 1.19991064799706e-16, global = -4.364816677179797e-17, cumulative = -3.63034636077923e-15
DILUPBiCG:  Solving for p, Initial residual = 8.072470015540353e-08, Final residual = 8.994016062595286e-14, No Iterations 1
diagonal:  Solving for rho, Initial residual = 0, Final residual = 0, No Iterations 0
time step continuity errors : sum local = 1.129157442462744e-16, global = -2.302717835495717e-17, cumulative = -3.653373539134187e-15
DILUPBiCG:  Solving for k, Initial residual = 0.290687413092782, Final residual = 2.099823979668907e-20, No Iterations 2
ExecutionTime = 60.38 s  ClockTime = 329 s

ORIG_COMP_STEP = 6.013620309000004
ORIG_IO_STEP = 27.45271694200001
Courant Number mean: 2.579902138264185e-11 max: 5.187377896431863e-05
deltaT = 2.985983999999999e-09
Time = 1.19159e-08

PIMPLE: iteration 1
diagonal:  Solving for rho, Initial residual = 0, Final residual = 0, No Iterations 0
DILUPBiCG:  Solving for Ux, Initial residual = 0.2369026538178321, Final residual = 1.303871176833735e-20, No Iterations 2
DILUPBiCG:  Solving for Uy, Initial residual = 0.2369026547739166, Final residual = 1.917822875061894e-20, No Iterations 2
DILUPBiCG:  Solving for Uz, Initial residual = 0.07712843001003362, Final residual = 8.479152197507508e-21, No Iterations 2
DILUPBiCG:  Solving for e, Initial residual = 0.07711646282431511, Final residual = 3.254100369057143e-20, No Iterations 2
DILUPBiCG:  Solving for p, Initial residual = 0.07712570122335635, Final residual = 9.876491124207539e-11, No Iterations 1
diagonal:  Solving for rho, Initial residual = 0, Final residual = 0, No Iterations 0
time step continuity errors : sum local = 3.622517234510767e-16, global = 3.61492958793277e-16, cumulative = -3.29188058034091e-15
DILUPBiCG:  Solving for p, Initial residual = 5.308585172533159e-08, Final residual = 7.007878898575505e-14, No Iterations 1
diagonal:  Solving for rho, Initial residual = 0, Final residual = 0, No Iterations 0
time step continuity errors : sum local = 3.788995764526029e-16, global = 3.731363366614755e-16, cumulative = -2.918744243679435e-15
DILUPBiCG:  Solving for k, Initial residual = 0.238515552415273, Final residual = 2.679484961864922e-20, No Iterations 2
ExecutionTime = 64.06 s  ClockTime = 363 s

ORIG_COMP_STEP = 3.594934865999988
ORIG_IO_STEP = 22.992263517
Courant Number mean: 3.095922535039619e-11 max: 6.224506732903097e-05
deltaT = 3.583180799999999e-09
Time = 1.54991e-08

PIMPLE: iteration 1
diagonal:  Solving for rho, Initial residual = 0, Final residual = 0, No Iterations 0
DILUPBiCG:  Solving for Ux, Initial residual = 0.2210518236980069, Final residual = 1.895046175935208e-20, No Iterations 2
DILUPBiCG:  Solving for Uy, Initial residual = 0.2210518239754936, Final residual = 2.698628804726048e-20, No Iterations 2
DILUPBiCG:  Solving for Uz, Initial residual = 0.06989931929214335, Final residual = 1.205506157294519e-20, No Iterations 2
DILUPBiCG:  Solving for e, Initial residual = 0.06988443060125268, Final residual = 4.536983459265979e-20, No Iterations 2
DILUPBiCG:  Solving for p, Initial residual = 0.06989572677033958, Final residual = 1.289778808010259e-10, No Iterations 1
diagonal:  Solving for rho, Initial residual = 0, Final residual = 0, No Iterations 0
time step continuity errors : sum local = 3.227444907074883e-16, global = 3.224307771479358e-16, cumulative = -2.596313466531499e-15
DILUPBiCG:  Solving for p, Initial residual = 3.977510201739399e-08, Final residual = 4.994922938509533e-14, No Iterations 1
diagonal:  Solving for rho, Initial residual = 0, Final residual = 0, No Iterations 0
time step continuity errors : sum local = 3.154147198384197e-16, global = 3.14753444383464e-16, cumulative = -2.281560022148035e-15
DILUPBiCG:  Solving for k, Initial residual = 0.2042780638816124, Final residual = 3.645583439670566e-20, No Iterations 2
ExecutionTime = 78.78 s  ClockTime = 401 s

ORIG_COMP_STEP = 14.691267025
ORIG_IO_STEP = 15.62478280799999
Courant Number mean: 3.715165332599924e-11 max: 7.468909815230524e-05
deltaT = 4.299816959999999e-09
Time = 1.97989e-08

PIMPLE: iteration 1
diagonal:  Solving for rho, Initial residual = 0, Final residual = 0, No Iterations 0
DILUPBiCG:  Solving for Ux, Initial residual = 0.2090172478624142, Final residual = 2.849941881897655e-20, No Iterations 2
DILUPBiCG:  Solving for Uy, Initial residual = 0.2090172478378126, Final residual = 3.893704445917932e-20, No Iterations 2
DILUPBiCG:  Solving for Uz, Initial residual = 0.06483296988418377, Final residual = 1.785965549312212e-20, No Iterations 2
DILUPBiCG:  Solving for e, Initial residual = 0.06481512342426086, Final residual = 6.578710211014427e-20, No Iterations 2
DILUPBiCG:  Solving for p, Initial residual = 0.0648283509282797, Final residual = 1.724101759076808e-10, No Iterations 1
diagonal:  Solving for rho, Initial residual = 0, Final residual = 0, No Iterations 0
time step continuity errors : sum local = 1.377726342321201e-16, global = -7.580599762968369e-17, cumulative = -2.357366019777719e-15
DILUPBiCG:  Solving for p, Initial residual = 3.443936474074894e-08, Final residual = 4.747513177635213e-14, No Iterations 1
diagonal:  Solving for rho, Initial residual = 0, Final residual = 0, No Iterations 0
time step continuity errors : sum local = 1.405022657826872e-16, global = -8.76343216627649e-17, cumulative = -2.445000341440484e-15
DILUPBiCG:  Solving for k, Initial residual = 0.1805907777538321, Final residual = 5.239443933306973e-20, No Iterations 2
ExecutionTime = 86.48 s  ClockTime = 425 s

ORIG_COMP_STEP = 7.694523277000002
ORIG_IO_STEP = 27.75200681800001
Courant Number mean: 4.458283626343821e-11 max: 8.961976116517031e-05
deltaT = 5.159780351999998e-09
Time = 2.49587e-08

PIMPLE: iteration 1
diagonal:  Solving for rho, Initial residual = 0, Final residual = 0, No Iterations 0
DILUPBiCG:  Solving for Ux, Initial residual = 0.199757890794542, Final residual = 4.466200701538339e-20, No Iterations 2
DILUPBiCG:  Solving for Uy, Initial residual = 0.1997578905561348, Final residual = 5.753802375290924e-20, No Iterations 2
DILUPBiCG:  Solving for Uz, Initial residual = 0.06113765121138639, Final residual = 2.74053074402662e-20, No Iterations 2
DILUPBiCG:  Solving for e, Initial residual = 0.06111614695722126, Final residual = 9.872076956635285e-20, No Iterations 2
DILUPBiCG:  Solving for p, Initial residual = 0.06113204873584106, Final residual = 2.343602045683209e-10, No Iterations 1
diagonal:  Solving for rho, Initial residual = 0, Final residual = 0, No Iterations 0
time step continuity errors : sum local = 2.865190799569716e-16, global = -2.842342335263114e-16, cumulative = -2.729234574966795e-15
DILUPBiCG:  Solving for p, Initial residual = 2.371049232741374e-08, Final residual = 3.609288132425934e-14, No Iterations 1
diagonal:  Solving for rho, Initial residual = 0, Final residual = 0, No Iterations 0
time step continuity errors : sum local = 2.817307821578105e-16, global = -2.784584295588641e-16, cumulative = -3.007693004525659e-15
DILUPBiCG:  Solving for k, Initial residual = 0.1635153332938508, Final residual = 7.907824697667714e-20, No Iterations 2
ExecutionTime = 92.94 s  ClockTime = 462 s

ORIG_COMP_STEP = 6.389477448999997
ORIG_IO_STEP = 16.67177423300001
Courant Number mean: 5.350065326149145e-11 max: 0.0001075334397309668
deltaT = 6.191736422399998e-09
Time = 3.11504e-08

PIMPLE: iteration 1
diagonal:  Solving for rho, Initial residual = 0, Final residual = 0, No Iterations 0
DILUPBiCG:  Solving for Ux, Initial residual = 0.1925419325052781, Final residual = 7.235027210265835e-20, No Iterations 2
DILUPBiCG:  Solving for Uy, Initial residual = 0.1925419322819769, Final residual = 8.701499689073714e-20, No Iterations 2
DILUPBiCG:  Solving for Uz, Initial residual = 0.05836276504385531, Final residual = 4.338332429753795e-20, No Iterations 2
DILUPBiCG:  Solving for e, Initial residual = 0.05833694737030386, Final residual = 1.529246170097791e-19, No Iterations 2
DILUPBiCG:  Solving for p, Initial residual = 0.05835595502273538, Final residual = 3.225640123795369e-10, No Iterations 1
diagonal:  Solving for rho, Initial residual = 0, Final residual = 0, No Iterations 0
time step continuity errors : sum local = 5.158320431968825e-16, global = -5.114426661257415e-16, cumulative = -3.519135670651401e-15
DILUPBiCG:  Solving for p, Initial residual = 1.56663697888156e-08, Final residual = 2.792423125731183e-14, No Iterations 1
diagonal:  Solving for rho, Initial residual = 0, Final residual = 0, No Iterations 0
time step continuity errors : sum local = 5.264307060026479e-16, global = -5.247111917324669e-16, cumulative = -4.043846862383868e-15
DILUPBiCG:  Solving for k, Initial residual = 0.1508056323929635, Final residual = 1.248758824966109e-19, No Iterations 2
ExecutionTime = 101.93 s  ClockTime = 489 s

ORIG_COMP_STEP = 8.97430350999997
ORIG_IO_STEP = 23.03023201399998
Courant Number mean: 6.420262259049183e-11 max: 0.0001290253889150596
deltaT = 7.430083706879997e-09
Time = 3.85805e-08

PIMPLE: iteration 1
diagonal:  Solving for rho, Initial residual = 0, Final residual = 0, No Iterations 0
DILUPBiCG:  Solving for Ux, Initial residual = 0.1868537569079934, Final residual = 1.2112418593027e-19, No Iterations 2
DILUPBiCG:  Solving for Uy, Initial residual = 0.1868537567299689, Final residual = 1.345999699890474e-19, No Iterations 2
DILUPBiCG:  Solving for Uz, Initial residual = 0.05623281387156804, Final residual = 7.063772348937533e-20, No Iterations 2
DILUPBiCG:  Solving for e, Initial residual = 0.05620181394075886, Final residual = 2.442589695300418e-19, No Iterations 2
DILUPBiCG:  Solving for p, Initial residual = 0.05622465529324169, Final residual = 4.482181886540905e-10, No Iterations 1
diagonal:  Solving for rho, Initial residual = 0, Final residual = 0, No Iterations 0
time step continuity errors : sum local = 2.434989383342537e-16, global = 2.218391863252788e-16, cumulative = -3.822007676058589e-15
DILUPBiCG:  Solving for p, Initial residual = 1.905691650167928e-08, Final residual = 3.933557857501909e-14, No Iterations 1
diagonal:  Solving for rho, Initial residual = 0, Final residual = 0, No Iterations 0
time step continuity errors : sum local = 2.022274026445918e-16, global = 1.730360652761626e-16, cumulative = -3.648971610782426e-15
DILUPBiCG:  Solving for k, Initial residual = 0.1411035908328806, Final residual = 2.058180860333482e-19, No Iterations 2
ExecutionTime = 106.84 s  ClockTime = 520 s

ORIG_COMP_STEP = 4.844508502999986
ORIG_IO_STEP = 16.771260466
Courant Number mean: 7.70458624299501e-11 max: 0.0001548093385833501
deltaT = 8.916100448255996e-09
Time = 4.74966e-08

PIMPLE: iteration 1
diagonal:  Solving for rho, Initial residual = 0, Final residual = 0, No Iterations 0
DILUPBiCG:  Solving for Ux, Initial residual = 0.1823251653538388, Final residual = 2.094563067368539e-19, No Iterations 2
DILUPBiCG:  Solving for Uy, Initial residual = 0.1823251651224091, Final residual = 2.199696966160755e-19, No Iterations 2
DILUPBiCG:  Solving for Uz, Initial residual = 0.05456977652444558, Final residual = 1.179857253806621e-19, No Iterations 2
DILUPBiCG:  Solving for e, Initial residual = 0.05453258934258658, Final residual = 4.021292347356602e-19, No Iterations 2
DILUPBiCG:  Solving for p, Initial residual = 0.05455995470531175, Final residual = 6.274907385249857e-10, No Iterations 1
diagonal:  Solving for rho, Initial residual = 0, Final residual = 0, No Iterations 0
time step continuity errors : sum local = 1.408096016553304e-16, global = -6.980105387784167e-17, cumulative = -3.718772664660267e-15
DILUPBiCG:  Solving for p, Initial residual = 1.77683434640111e-08, Final residual = 4.305231576650385e-14, No Iterations 1
diagonal:  Solving for rho, Initial residual = 0, Final residual = 0, No Iterations 0
time step continuity errors : sum local = 1.534996298965542e-16, global = -1.092010663729427e-16, cumulative = -3.82797373103321e-15
DILUPBiCG:  Solving for k, Initial residual = 0.133546624028484, Final residual = 3.53399826685498e-19, No Iterations 2
ExecutionTime = 114.14 s  ClockTime = 551 s

ORIG_COMP_STEP = 7.256329875000006
ORIG_IO_STEP = 18.63774321900001
Courant Number mean: 9.245906186429263e-11 max: 0.0001857409471672456
deltaT = 1.069932053790719e-08
Time = 5.81959e-08

PIMPLE: iteration 1
diagonal:  Solving for rho, Initial residual = 0, Final residual = 0, No Iterations 0
DILUPBiCG:  Solving for Ux, Initial residual = 0.1786887185041145, Final residual = 3.744294849122376e-19, No Iterations 2
DILUPBiCG:  Solving for Uy, Initial residual = 0.1786887183575464, Final residual = 3.752923199420848e-19, No Iterations 2
DILUPBiCG:  Solving for Uz, Initial residual = 0.05325344176874387, Final residual = 2.016146751434312e-19, No Iterations 2
DILUPBiCG:  Solving for e, Initial residual = 0.05320885259949219, Final residual = 6.823700976395462e-19, No Iterations 2
DILUPBiCG:  Solving for p, Initial residual = 0.05324160267743396, Final residual = 8.8372949546721e-10, No Iterations 1
diagonal:  Solving for rho, Initial residual = 0, Final residual = 0, No Iterations 0
time step continuity errors : sum local = 1.465565109175854e-16, global = -8.691045008231485e-17, cumulative = -3.914884181115525e-15
DILUPBiCG:  Solving for p, Initial residual = 1.183125338590281e-08, Final residual = 3.38843580114557e-14, No Iterations 1
diagonal:  Solving for rho, Initial residual = 0, Final residual = 0, No Iterations 0
time step continuity errors : sum local = 1.507500793164392e-16, global = -1.203125224723309e-16, cumulative = -4.035196703587856e-15
DILUPBiCG:  Solving for k, Initial residual = 0.1275637286558232, Final residual = 6.310814971697044e-19, No Iterations 2
ExecutionTime = 117.49 s  ClockTime = 579 s

ORIG_COMP_STEP = 3.279578648999973
ORIG_IO_STEP = 31.42525085800003
Courant Number mean: 1.109568746991224e-10 max: 0.0002228458487620225
deltaT = 1.283918464548863e-08
Time = 7.10351e-08

PIMPLE: iteration 1
diagonal:  Solving for rho, Initial residual = 0, Final residual = 0, No Iterations 0
DILUPBiCG:  Solving for Ux, Initial residual = 0.1757466902908892, Final residual = 6.965877524468175e-19, No Iterations 2
DILUPBiCG:  Solving for Uy, Initial residual = 0.1757466902547124, Final residual = 6.683503240402749e-19, No Iterations 2
DILUPBiCG:  Solving for Uz, Initial residual = 0.05219967038325741, Final residual = 3.513663396297289e-19, No Iterations 2
DILUPBiCG:  Solving for e, Initial residual = 0.05214604413971057, Final residual = 1.193569122494447e-18, No Iterations 2
DILUPBiCG:  Solving for p, Initial residual = 0.05218545279856279, Final residual = 1.250685371718485e-09, No Iterations 1
diagonal:  Solving for rho, Initial residual = 0, Final residual = 0, No Iterations 0
time step continuity errors : sum local = 4.562845879693119e-16, global = -4.325390178784277e-16, cumulative = -4.467735721466284e-15
DILUPBiCG:  Solving for p, Initial residual = 9.122526066124169e-09, Final residual = 3.103926594144674e-14, No Iterations 1
diagonal:  Solving for rho, Initial residual = 0, Final residual = 0, No Iterations 0
time step continuity errors : sum local = 4.36913827847186e-16, global = -4.368797091243905e-16, cumulative = -4.904615430590674e-15
DILUPBiCG:  Solving for k, Initial residual = 0.12276349095575, Final residual = 1.169881126958947e-18, No Iterations 2
ExecutionTime = 125.54 s  ClockTime = 620 s

ORIG_COMP_STEP = 7.968415541000013
ORIG_IO_STEP = 15.84505212199997
Courant Number mean: 1.331572376558773e-10 max: 0.0002673531757326263
deltaT = 1.540702157458636e-08
Time = 8.64421e-08

PIMPLE: iteration 1
diagonal:  Solving for rho, Initial residual = 0, Final residual = 0, No Iterations 0
DILUPBiCG:  Solving for Ux, Initial residual = 0.1733503711969485, Final residual = 1.336105252006141e-18, No Iterations 2
DILUPBiCG:  Solving for Uy, Initial residual = 0.173350371289302, Final residual = 1.245374725673536e-18, No Iterations 2
DILUPBiCG:  Solving for Uz, Initial residual = 0.05134778407034483, Final residual = 6.221368788169232e-19, No Iterations 2
DILUPBiCG:  Solving for e, Initial residual = 0.05128354744084064, Final residual = 2.15198581574282e-18, No Iterations 2
DILUPBiCG:  Solving for p, Initial residual = 0.05133080209031231, Final residual = 1.777210083540006e-09, No Iterations 1
diagonal:  Solving for rho, Initial residual = 0, Final residual = 0, No Iterations 0
time step continuity errors : sum local = 2.589750470312631e-16, global = 2.440780967257419e-16, cumulative = -4.660537333864932e-15
DILUPBiCG:  Solving for p, Initial residual = 9.695870308187339e-09, Final residual = 3.931302853804638e-14, No Iterations 1
diagonal:  Solving for rho, Initial residual = 0, Final residual = 0, No Iterations 0
time step continuity errors : sum local = 2.488137057941251e-16, global = 2.399185706382963e-16, cumulative = -4.420618763226636e-15
DILUPBiCG:  Solving for k, Initial residual = 0.1188694767517385, Final residual = 2.246544151407674e-18, No Iterations 2
ExecutionTime = 141.13 s  ClockTime = 652 s

ORIG_COMP_STEP = 15.64506618199999
ORIG_IO_STEP = 19.57334074399995
Courant Number mean: 1.598022253507402e-10 max: 0.0003207356037221297
deltaT = 1.848842588950363e-08
Time = 1.04931e-07

PIMPLE: iteration 1
diagonal:  Solving for rho, Initial residual = 0, Final residual = 0, No Iterations 0
DILUPBiCG:  Solving for Ux, Initial residual = 0.1713861506165795, Final residual = 2.637067360600702e-18, No Iterations 2
DILUPBiCG:  Solving for Uy, Initial residual = 0.1713861507353132, Final residual = 2.493009791929471e-18, No Iterations 2
DILUPBiCG:  Solving for Uz, Initial residual = 0.05065290346932778, Final residual = 1.113356690440555e-18, No Iterations 2
DILUPBiCG:  Solving for e, Initial residual = 0.05057600079518815, Final residual = 3.998203231315794e-18, No Iterations 2
DILUPBiCG:  Solving for p, Initial residual = 0.05063264285157238, Final residual = 2.534133512795875e-09, No Iterations 1
diagonal:  Solving for rho, Initial residual = 0, Final residual = 0, No Iterations 0
time step continuity errors : sum local = 3.240283815558574e-16, global = 3.2196354490313e-16, cumulative = -4.098655218323506e-15
DILUPBiCG:  Solving for p, Initial residual = 9.042293480630537e-09, Final residual = 4.395179968261385e-14, No Iterations 1
diagonal:  Solving for rho, Initial residual = 0, Final residual = 0, No Iterations 0
time step continuity errors : sum local = 2.785654273984652e-16, global = 2.757773584658642e-16, cumulative = -3.822877859857642e-15
DILUPBiCG:  Solving for k, Initial residual = 0.1156813755234258, Final residual = 4.458083488829985e-18, No Iterations 2
ExecutionTime = 146.28 s  ClockTime = 679 s

ORIG_COMP_STEP = 5.095951207999974
ORIG_IO_STEP = 24.00284936399999
Courant Number mean: 1.917831942392334e-10 max: 0.0003847571616184497
deltaT = 2.218611106740435e-08
Time = 1.27117e-07

PIMPLE: iteration 1
diagonal:  Solving for rho, Initial residual = 0, Final residual = 0, No Iterations 0
DILUPBiCG:  Solving for Ux, Initial residual = 0.1697659601355875, Final residual = 5.350680160137429e-18, No Iterations 2
DILUPBiCG:  Solving for Uy, Initial residual = 0.169765960228652, Final residual = 5.13660637568549e-18, No Iterations 2
DILUPBiCG:  Solving for Uz, Initial residual = 0.05008109717098078, Final residual = 1.999323692437247e-18, No Iterations 2
DILUPBiCG:  Solving for e, Initial residual = 0.04998905747153792, Final residual = 7.649255407812164e-18, No Iterations 2
DILUPBiCG:  Solving for p, Initial residual = 0.05005698137944696, Final residual = 3.624344802616755e-09, No Iterations 1
diagonal:  Solving for rho, Initial residual = 0, Final residual = 0, No Iterations 0
time step continuity errors : sum local = 3.07127221395816e-16, global = -1.67516681911458e-16, cumulative = -3.9903945417691e-15
DILUPBiCG:  Solving for p, Initial residual = 9.264955824967743e-09, Final residual = 5.42898408057848e-14, No Iterations 1
diagonal:  Solving for rho, Initial residual = 0, Final residual = 0, No Iterations 0
time step continuity errors : sum local = 2.496973552283767e-16, global = -2.349629633534048e-16, cumulative = -4.225357505122505e-15
DILUPBiCG:  Solving for k, Initial residual = 0.1130507773643133, Final residual = 9.117330419911505e-18, No Iterations 2
ExecutionTime = 151.59 s  ClockTime = 708 s

ORIG_COMP_STEP = 5.249979228999962
ORIG_IO_STEP = 17.793852888
Courant Number mean: 2.301711466242698e-10 max: 0.0004615302830703818
deltaT = 2.662333328088522e-08
Time = 1.5374e-07

PIMPLE: iteration 1
diagonal:  Solving for rho, Initial residual = 0, Final residual = 0, No Iterations 0
DILUPBiCG:  Solving for Ux, Initial residual = 0.1684205698267988, Final residual = 1.23598480951101e-17, No Iterations 2
DILUPBiCG:  Solving for Uy, Initial residual = 0.1684205698994334, Final residual = 1.167086113412728e-17, No Iterations 2
DILUPBiCG:  Solving for Uz, Initial residual = 0.04960620294059583, Final residual = 3.564033499642796e-18, No Iterations 2
DILUPBiCG:  Solving for e, Initial residual = 0.04949605549213713, Final residual = 1.505355062249999e-17, No Iterations 2
DILUPBiCG:  Solving for p, Initial residual = 0.0495775397684099, Final residual = 5.197622304750731e-09, No Iterations 1
diagonal:  Solving for rho, Initial residual = 0, Final residual = 0, No Iterations 0
time step continuity errors : sum local = 7.0308714984196e-16, global = -4.879619020884362e-16, cumulative = -4.713319407210941e-15
DILUPBiCG:  Solving for p, Initial residual = 1.086415048416604e-08, Final residual = 7.703035541482299e-14, No Iterations 1
diagonal:  Solving for rho, Initial residual = 0, Final residual = 0, No Iterations 0
time step continuity errors : sum local = 5.882540492190145e-16, global = -5.864010519530063e-16, cumulative = -5.299720459163948e-15
DILUPBiCG:  Solving for k, Initial residual = 0.110865574071064, Final residual = 1.916130731374044e-17, No Iterations 2
ExecutionTime = 154.68 s  ClockTime = 732 s

ORIG_COMP_STEP = 3.018100643999901
ORIG_IO_STEP = 24.55370959499999
Courant Number mean: 2.762534789235654e-10 max: 0.0005535838593398179
deltaT = 3.194799993706226e-08
Time = 1.85688e-07

PIMPLE: iteration 1
diagonal:  Solving for rho, Initial residual = 0, Final residual = 0, No Iterations 0
DILUPBiCG:  Solving for Ux, Initial residual = 0.167294867370027, Final residual = 3.4059336422458e-17, No Iterations 2
DILUPBiCG:  Solving for Uy, Initial residual = 0.167294867413153, Final residual = 3.270025597265171e-17, No Iterations 2
DILUPBiCG:  Solving for Uz, Initial residual = 0.04920767320446162, Final residual = 6.194256081085401e-18, No Iterations 2
DILUPBiCG:  Solving for e, Initial residual = 0.04907589891569321, Final residual = 3.042923402287667e-17, No Iterations 2
DILUPBiCG:  Solving for p, Initial residual = 0.04917364127333893, Final residual = 7.472530208123856e-09, No Iterations 1
diagonal:  Solving for rho, Initial residual = 0, Final residual = 0, No Iterations 0
time step continuity errors : sum local = 3.138536453555106e-16, global = 1.531195696923169e-16, cumulative = -5.146600889471631e-15
DILUPBiCG:  Solving for p, Initial residual = 1.086425482814614e-08, Final residual = 9.408314827313903e-14, No Iterations 1
diagonal:  Solving for rho, Initial residual = 0, Final residual = 0, No Iterations 0
time step continuity errors : sum local = 1.175328396312681e-16, global = -5.33624611578908e-17, cumulative = -5.199963350629522e-15
DILUPBiCG:  Solving for k, Initial residual = 0.1090396075813174, Final residual = 4.126184766584232e-17, No Iterations 2
ExecutionTime = 159.61 s  ClockTime = 764 s

ORIG_COMP_STEP = 4.865126047999979
ORIG_IO_STEP = 24.22587600200006
Courant Number mean: 3.315785885852681e-10 max: 0.0006639444024474672
deltaT = 3.833759992447472e-08
Time = 2.24026e-07

PIMPLE: iteration 1
diagonal:  Solving for rho, Initial residual = 0, Final residual = 0, No Iterations 0
DILUPBiCG:  Solving for Ux, Initial residual = 0.1663443956659531, Final residual = 1.146138237897798e-16, No Iterations 2
DILUPBiCG:  Solving for Uy, Initial residual = 0.1663443956840656, Final residual = 1.104883389031911e-16, No Iterations 2
DILUPBiCG:  Solving for Uz, Initial residual = 0.04886908349993959, Final residual = 1.013680927102869e-17, No Iterations 2
DILUPBiCG:  Solving for e, Initial residual = 0.04871149384026764, Final residual = 6.306735095014217e-17, No Iterations 2
DILUPBiCG:  Solving for p, Initial residual = 0.04882878019127225, Final residual = 1.076888737467492e-08, No Iterations 1
diagonal:  Solving for rho, Initial residual = 0, Final residual = 0, No Iterations 0
time step continuity errors : sum local = 4.618501440137811e-16, global = 4.263926472031055e-16, cumulative = -4.773570703426416e-15
DILUPBiCG:  Solving for p, Initial residual = 1.326936829630724e-08, Final residual = 1.408590430930026e-13, No Iterations 1
diagonal:  Solving for rho, Initial residual = 0, Final residual = 0, No Iterations 0
time step continuity errors : sum local = 1.318577317667709e-16, global = 7.669553080685597e-17, cumulative = -4.69687517261956e-15
DILUPBiCG:  Solving for k, Initial residual = 0.1075056543297524, Final residual = 9.078017377822474e-17, No Iterations 2
ExecutionTime = 165.12 s  ClockTime = 799 s

ORIG_COMP_STEP = 5.433963497000036
ORIG_IO_STEP = 17.61124484999993
Courant Number mean: 3.980102364415256e-10 max: 0.0007962328698137058
deltaT = 4.600511990936966e-08
Time = 2.70031e-07

PIMPLE: iteration 1
diagonal:  Solving for rho, Initial residual = 0, Final residual = 0, No Iterations 0
DILUPBiCG:  Solving for Ux, Initial residual = 0.1655328305210325, Final residual = 2.237589035287591e-15, No Iterations 2
DILUPBiCG:  Solving for Uy, Initial residual = 0.1655328305282786, Final residual = 1.792136918083604e-15, No Iterations 2
DILUPBiCG:  Solving for Uz, Initial residual = 0.04857706695269957, Final residual = 1.432497782151399e-17, No Iterations 2
DILUPBiCG:  Solving for e, Initial residual = 0.04838870233246508, Final residual = 1.337534961018615e-16, No Iterations 2
DILUPBiCG:  Solving for p, Initial residual = 0.04852947813046501, Final residual = 1.555611552932414e-08, No Iterations 1
diagonal:  Solving for rho, Initial residual = 0, Final residual = 0, No Iterations 0
time step continuity errors : sum local = 8.306499177588325e-16, global = 2.944696916431206e-16, cumulative = -4.40240548097644e-15
DILUPBiCG:  Solving for p, Initial residual = 1.77402676715558e-08, Final residual = 2.315975301135018e-13, No Iterations 1
diagonal:  Solving for rho, Initial residual = 0, Final residual = 0, No Iterations 0
time step continuity errors : sum local = 2.655974727726464e-16, global = -2.552035267637832e-16, cumulative = -4.657609007740223e-15
DILUPBiCG:  Solving for k, Initial residual = 0.1062105485678024, Final residual = 2.035020460099871e-16, No Iterations 2
ExecutionTime = 170.29 s  ClockTime = 824 s

ORIG_COMP_STEP = 5.127720410000052
ORIG_IO_STEP = 23.93261615100005
Courant Number mean: 4.777941509128002e-10 max: 0.0009547802819188049
deltaT = 5.520614389124359e-08
Time = 3.25237e-07

PIMPLE: iteration 1
diagonal:  Solving for rho, Initial residual = 0, Final residual = 0, No Iterations 0
DILUPBiCG:  Solving for Ux, Initial residual = 0.1648300727901998, Final residual = 1.842684743549718e-16, No Iterations 2
DILUPBiCG:  Solving for Uy, Initial residual = 0.1648300727872685, Final residual = 1.95510364936208e-16, No Iterations 2
DILUPBiCG:  Solving for Uz, Initial residual = 0.04832053617889782, Final residual = 1.196552477932075e-17, No Iterations 2
DILUPBiCG:  Solving for e, Initial residual = 0.0480955094689982, Final residual = 2.896372335715452e-16, No Iterations 2
DILUPBiCG:  Solving for p, Initial residual = 0.04826449964008018, Final residual = 2.252561178888514e-08, No Iterations 1
diagonal:  Solving for rho, Initial residual = 0, Final residual = 0, No Iterations 0
time step continuity errors : sum local = 1.186163757414434e-15, global = 1.152158950009919e-15, cumulative = -3.505450057730305e-15
DILUPBiCG:  Solving for p, Initial residual = 2.45923046729623e-08, Final residual = 3.966671808422407e-13, No Iterations 1
diagonal:  Solving for rho, Initial residual = 0, Final residual = 0, No Iterations 0
time step continuity errors : sum local = 2.612523595367372e-16, global = 2.012285272713623e-16, cumulative = -3.304221530458942e-15
DILUPBiCG:  Solving for k, Initial residual = 0.1051117265795101, Final residual = 4.636487473068475e-16, No Iterations 2
ExecutionTime = 176.01 s  ClockTime = 856 s

ORIG_COMP_STEP = 5.657512622000013
ORIG_IO_STEP = 19.80008565700007
Courant Number mean: 5.736402039779272e-10 max: 0.001144766058994375
deltaT = 6.62473726694923e-08
Time = 3.91484e-07

PIMPLE: iteration 1
diagonal:  Solving for rho, Initial residual = 0, Final residual = 0, No Iterations 0
DILUPBiCG:  Solving for Ux, Initial residual = 0.1642107993091546, Final residual = 2.604663616806213e-16, No Iterations 2
DILUPBiCG:  Solving for Uy, Initial residual = 0.1642107992999927, Final residual = 2.561147033449605e-16, No Iterations 2
DILUPBiCG:  Solving for Uz, Initial residual = 0.04809010279496453, Final residual = 2.96737362880795e-17, No Iterations 2
DILUPBiCG:  Solving for e, Initial residual = 0.04782154129430145, Final residual = 6.38983155141185e-16, No Iterations 2
DILUPBiCG:  Solving for p, Initial residual = 0.04802442696239049, Final residual = 3.269969817863598e-08, No Iterations 1
diagonal:  Solving for rho, Initial residual = 0, Final residual = 0, No Iterations 0
time step continuity errors : sum local = 1.92338170838415e-15, global = 1.911447494140368e-15, cumulative = -1.392774036318574e-15
DILUPBiCG:  Solving for p, Initial residual = 3.482823859594774e-08, Final residual = 6.973196296094347e-13, No Iterations 1
diagonal:  Solving for rho, Initial residual = 0, Final residual = 0, No Iterations 0
time step continuity errors : sum local = 2.300143204137476e-16, global = 2.211024213212773e-16, cumulative = -1.171671614997297e-15
DILUPBiCG:  Solving for k, Initial residual = 0.1041747324277929, Final residual = 1.071185911596331e-15, No Iterations 2
ExecutionTime = 178.98 s  ClockTime = 890 s

ORIG_COMP_STEP = 2.869854405000069
ORIG_IO_STEP = 14.869423439
Courant Number mean: 6.888247243071572e-10 max: 0.001372384141132094
deltaT = 7.949684720339076e-08
Time = 4.70981e-07

PIMPLE: iteration 1
diagonal:  Solving for rho, Initial residual = 0, Final residual = 0, No Iterations 0
DILUPBiCG:  Solving for Ux, Initial residual = 0.1636533359101065, Final residual = 1.432513529666835e-15, No Iterations 2
DILUPBiCG:  Solving for Uy, Initial residual = 0.1636533358921537, Final residual = 1.428482856056047e-15, No Iterations 2
DILUPBiCG:  Solving for Uz, Initial residual = 0.04787763428152548, Final residual = 2.017367508690519e-16, No Iterations 2
DILUPBiCG:  Solving for e, Initial residual = 0.04755744965982314, Final residual = 1.433030269869215e-15, No Iterations 2
DILUPBiCG:  Solving for p, Initial residual = 0.04780104360468516, Final residual = 4.759646324650909e-08, No Iterations 1
diagonal:  Solving for rho, Initial residual = 0, Final residual = 0, No Iterations 0
time step continuity errors : sum local = 3.153734709424528e-15, global = 3.126167384126919e-15, cumulative = 1.954495769129622e-15
DILUPBiCG:  Solving for p, Initial residual = 5.094780262094389e-08, Final residual = 4.618994363703002e-19, No Iterations 2
diagonal:  Solving for rho, Initial residual = 0, Final residual = 0, No Iterations 0
time step continuity errors : sum local = 1.478987782373831e-16, global = 1.244982044982913e-16, cumulative = 2.078993973627914e-15
DILUPBiCG:  Solving for k, Initial residual = 0.1033713883583978, Final residual = 2.504495318751945e-15, No Iterations 2
ExecutionTime = 184.64 s  ClockTime = 914 s

ORIG_COMP_STEP = 5.620425021999949
ORIG_IO_STEP = 19.01777989000004
Courant Number mean: 8.273193613829197e-10 max: 0.00164504366023668
deltaT = 9.53962166440689e-08
Time = 5.66377e-07

PIMPLE: iteration 1
diagonal:  Solving for rho, Initial residual = 0, Final residual = 0, No Iterations 0
DILUPBiCG:  Solving for Ux, Initial residual = 0.1631387898439297, Final residual = 5.20912990696448e-15, No Iterations 2
DILUPBiCG:  Solving for Uy, Initial residual = 0.1631387898282272, Final residual = 5.202499127204248e-15, No Iterations 2
DILUPBiCG:  Solving for Uz, Initial residual = 0.04767591954157806, Final residual = 8.279412916832324e-16, No Iterations 2
DILUPBiCG:  Solving for e, Initial residual = 0.04729465168733368, Final residual = 3.260107891965153e-15, No Iterations 2
DILUPBiCG:  Solving for p, Initial residual = 0.04758713430149043, Final residual = 6.948084885021974e-08, No Iterations 1
diagonal:  Solving for rho, Initial residual = 0, Final residual = 0, No Iterations 0
time step continuity errors : sum local = 5.735224227372083e-15, global = 5.728024095388217e-15, cumulative = 7.80701806901613e-15
DILUPBiCG:  Solving for p, Initial residual = 7.475346997416745e-08, Final residual = 1.471122354104626e-18, No Iterations 2
diagonal:  Solving for rho, Initial residual = 0, Final residual = 0, No Iterations 0
time step continuity errors : sum local = 5.147421134290816e-16, global = 5.094795833695983e-16, cumulative = 8.316497652385729e-15
DILUPBiCG:  Solving for k, Initial residual = 0.1026784509964785, Final residual = 5.915470156119222e-15, No Iterations 2
ExecutionTime = 199.19 s  ClockTime = 948 s

ORIG_COMP_STEP = 14.55989592999993
ORIG_IO_STEP = 16.53885233300002
Courant Number mean: 9.939557313289926e-10 max: 0.001971613580785861
deltaT = 1.144754599728827e-07
Time = 6.80853e-07

PIMPLE: iteration 1
diagonal:  Solving for rho, Initial residual = 0, Final residual = 0, No Iterations 0
DILUPBiCG:  Solving for Ux, Initial residual = 0.1626503689067651, Final residual = 1.709829014081307e-14, No Iterations 2
DILUPBiCG:  Solving for Uy, Initial residual = 0.1626503688949825, Final residual = 1.708696981119494e-14, No Iterations 2
DILUPBiCG:  Solving for Uz, Initial residual = 0.04747840468802449, Final residual = 2.923665845117761e-15, No Iterations 2
DILUPBiCG:  Solving for e, Initial residual = 0.04702510080245675, Final residual = 7.508483142264414e-15, No Iterations 2
DILUPBiCG:  Solving for p, Initial residual = 0.047376253399628, Final residual = 1.017492201823581e-07, No Iterations 1
diagonal:  Solving for rho, Initial residual = 0, Final residual = 0, No Iterations 0
time step continuity errors : sum local = 9.343126912627456e-15, global = 9.010765031931621e-15, cumulative = 1.732726268431735e-14
DILUPBiCG:  Solving for p, Initial residual = 1.115893342061002e-07, Final residual = 4.841586953921248e-18, No Iterations 2
diagonal:  Solving for rho, Initial residual = 0, Final residual = 0, No Iterations 0
time step continuity errors : sum local = 1.787217545214672e-16, global = -1.404276635012822e-16, cumulative = 1.718683502081607e-14
DILUPBiCG:  Solving for k, Initial residual = 0.1020765841822016, Final residual = 1.409320826918068e-14, No Iterations 2
ExecutionTime = 204 s  ClockTime = 974 s

ORIG_COMP_STEP = 4.759427453000058
ORIG_IO_STEP = 26.77068005899991
Courant Number mean: 1.194639434056502e-09 max: 0.002362724964296518
deltaT = 1.373705519674592e-07
Time = 8.18223e-07

PIMPLE: iteration 1
diagonal:  Solving for rho, Initial residual = 0, Final residual = 0, No Iterations 0
DILUPBiCG:  Solving for Ux, Initial residual = 0.1621728601412654, Final residual = 5.381915966690997e-14, No Iterations 2
DILUPBiCG:  Solving for Uy, Initial residual = 0.1621728601318979, Final residual = 5.379952622942907e-14, No Iterations 2
DILUPBiCG:  Solving for Uz, Initial residual = 0.04727900098923348, Final residual = 9.633165653409591e-15, No Iterations 2
DILUPBiCG:  Solving for e, Initial residual = 0.04674102008229142, Final residual = 1.747483612450682e-14, No Iterations 2
DILUPBiCG:  Solving for p, Initial residual = 0.0471625394253423, Final residual = 1.495218957845747e-07, No Iterations 1
diagonal:  Solving for rho, Initial residual = 0, Final residual = 0, No Iterations 0
time step continuity errors : sum local = 1.639561614687278e-14, global = 1.636356345740007e-14, cumulative = 3.355039847821614e-14
DILUPBiCG:  Solving for p, Initial residual = 1.681490863950855e-07, Final residual = 1.624018924095812e-17, No Iterations 2
diagonal:  Solving for rho, Initial residual = 0, Final residual = 0, No Iterations 0
time step continuity errors : sum local = 2.573659922277083e-16, global = 2.428683978393985e-16, cumulative = 3.379326687605554e-14
DILUPBiCG:  Solving for k, Initial residual = 0.1015495954092315, Final residual = 3.382323271273466e-14, No Iterations 2
ExecutionTime = 211 s  ClockTime = 1010 s

ORIG_COMP_STEP = 6.930269972000019
ORIG_IO_STEP = 15.876720826
Courant Number mean: 1.436633858693083e-09 max: 0.002831151431704838
deltaT = 1.64844662360951e-07
Time = 9.83068e-07

PIMPLE: iteration 1
diagonal:  Solving for rho, Initial residual = 0, Final residual = 0, No Iterations 0
DILUPBiCG:  Solving for Ux, Initial residual = 0.1616922563132195, Final residual = 1.658437484335607e-13, No Iterations 2
DILUPBiCG:  Solving for Uy, Initial residual = 0.1616922563068501, Final residual = 1.658090010390973e-13, No Iterations 2
DILUPBiCG:  Solving for Uz, Initial residual = 0.04707195402048162, Final residual = 3.055760465436933e-14, No Iterations 2
DILUPBiCG:  Solving for e, Initial residual = 0.04643487118051823, Final residual = 4.102818859566468e-14, No Iterations 2
DILUPBiCG:  Solving for p, Initial residual = 0.04694067751239729, Final residual = 2.20560986732326e-07, No Iterations 1
diagonal:  Solving for rho, Initial residual = 0, Final residual = 0, No Iterations 0
time step continuity errors : sum local = 2.874386873756161e-14, global = 2.870102754601711e-14, cumulative = 6.249429442207265e-14
DILUPBiCG:  Solving for p, Initial residual = 2.549950449705845e-07, Final residual = 5.517952025180686e-17, No Iterations 2
diagonal:  Solving for rho, Initial residual = 0, Final residual = 0, No Iterations 0
time step continuity errors : sum local = 2.01183519789963e-16, global = 1.944844296351047e-16, cumulative = 6.268877885170775e-14
DILUPBiCG:  Solving for k, Initial residual = 0.1010838674336459, Final residual = 8.168147691140786e-14, No Iterations 2
ExecutionTime = 217.16 s  ClockTime = 1033 s

ORIG_COMP_STEP = 6.154454287000021
ORIG_IO_STEP = 36.64360980599997
Courant Number mean: 1.728944985977875e-09 max: 0.003392299833640207
deltaT = 1.978135948331412e-07
Time = 1.18088e-06

PIMPLE: iteration 1
diagonal:  Solving for rho, Initial residual = 0, Final residual = 0, No Iterations 0
DILUPBiCG:  Solving for Ux, Initial residual = 0.1611955235081339, Final residual = 5.048793861798058e-13, No Iterations 2
DILUPBiCG:  Solving for Uy, Initial residual = 0.1611955235038666, Final residual = 5.048153584798313e-13, No Iterations 2
DILUPBiCG:  Solving for Uz, Initial residual = 0.04685178029040466, Final residual = 9.473145831760865e-14, No Iterations 2
DILUPBiCG:  Solving for e, Initial residual = 0.04609930999801565, Final residual = 9.702879709964068e-14, No Iterations 2
DILUPBiCG:  Solving for p, Initial residual = 0.04670588646455787, Final residual = 3.266985118204833e-07, No Iterations 1
diagonal:  Solving for rho, Initial residual = 0, Final residual = 0, No Iterations 0
time step continuity errors : sum local = 5.110005342259675e-14, global = 4.988315053691713e-14, cumulative = 1.125719293886249e-13
DILUPBiCG:  Solving for p, Initial residual = 3.88490960236026e-07, Final residual = 1.894601930333236e-16, No Iterations 2
diagonal:  Solving for rho, Initial residual = 0, Final residual = 0, No Iterations 0
time step continuity errors : sum local = 5.889876729779802e-16, global = -5.876020749103776e-16, cumulative = 1.119843273137145e-13
DILUPBiCG:  Solving for k, Initial residual = 0.100667933955227, Final residual = 1.983030687368541e-13, No Iterations 2
ExecutionTime = 228.53 s  ClockTime = 1083 s

ORIG_COMP_STEP = 11.29172044300003
ORIG_IO_STEP = 33.09070364900003
Courant Number mean: 2.082855556043831e-09 max: 0.0040648621432262
deltaT = 2.373763137997695e-07
Time = 1.41826e-06

PIMPLE: iteration 1
diagonal:  Solving for rho, Initial residual = 0, Final residual = 0, No Iterations 0
DILUPBiCG:  Solving for Ux, Initial residual = 0.1606705278586148, Final residual = 1.861164985547351e-18, No Iterations 3
DILUPBiCG:  Solving for Uy, Initial residual = 0.1606705278559684, Final residual = 1.862499867265776e-18, No Iterations 3
DILUPBiCG:  Solving for Uz, Initial residual = 0.04661328087236247, Final residual = 2.893284522573664e-13, No Iterations 2
DILUPBiCG:  Solving for e, Initial residual = 0.04572734698852073, Final residual = 2.308255736231359e-13, No Iterations 2
DILUPBiCG:  Solving for p, Initial residual = 0.04645402470244409, Final residual = 4.860654239995052e-07, No Iterations 1
diagonal:  Solving for rho, Initial residual = 0, Final residual = 0, No Iterations 0
time step continuity errors : sum local = 8.999581867236196e-14, global = 8.964312358152036e-14, cumulative = 2.016274508952349e-13
DILUPBiCG:  Solving for p, Initial residual = 5.950666967476046e-07, Final residual = 6.588692720109828e-16, No Iterations 2
diagonal:  Solving for rho, Initial residual = 0, Final residual = 0, No Iterations 0
time step continuity errors : sum local = 1.256332792336147e-16, global = -8.450532020874218e-18, cumulative = 2.01619000363214e-13
DILUPBiCG:  Solving for k, Initial residual = 0.100292162834648, Final residual = 4.836076365513719e-13, No Iterations 2
ExecutionTime = 235.95 s  ClockTime = 1129 s

ORIG_COMP_STEP = 7.318275335999942
ORIG_IO_STEP = 29.51907076199996
Courant Number mean: 2.51268432996026e-09 max: 0.00487171116657586
deltaT = 2.848515765597234e-07
Time = 1.70311e-06

PIMPLE: iteration 1
diagonal:  Solving for rho, Initial residual = 0, Final residual = 0, No Iterations 0
DILUPBiCG:  Solving for Ux, Initial residual = 0.1601061515032967, Final residual = 9.55409597832733e-18, No Iterations 3
DILUPBiCG:  Solving for Uy, Initial residual = 0.1601061515008892, Final residual = 9.5597070427526e-18, No Iterations 3
DILUPBiCG:  Solving for Uz, Initial residual = 0.04635169314009339, Final residual = 8.74582290421601e-13, No Iterations 2
DILUPBiCG:  Solving for e, Initial residual = 0.04531259033256326, Final residual = 5.517304048213273e-13, No Iterations 2
DILUPBiCG:  Solving for p, Initial residual = 0.04618181281709664, Final residual = 7.265748956521306e-07, No Iterations 1
diagonal:  Solving for rho, Initial residual = 0, Final residual = 0, No Iterations 0
time step continuity errors : sum local = 1.605675378718712e-13, global = 1.600640836139648e-13, cumulative = 3.616830839771788e-13
DILUPBiCG:  Solving for p, Initial residual = 9.1491792471982e-07, Final residual = 2.317076601858402e-15, No Iterations 2
diagonal:  Solving for rho, Initial residual = 0, Final residual = 0, No Iterations 0
time step continuity errors : sum local = 1.522032410530601e-16, global = 1.220444865465609e-16, cumulative = 3.618051284637254e-13
DILUPBiCG:  Solving for k, Initial residual = 0.09994853086402807, Final residual = 3.640519224723764e-18, No Iterations 3
ExecutionTime = 250.27 s  ClockTime = 1174 s

ORIG_COMP_STEP = 14.30757892099996
ORIG_IO_STEP = 29.5856095470001
Courant Number mean: 3.036889743564751e-09 max: 0.005841174881479723
deltaT = 3.41821891871668e-07
Time = 2.04493e-06

PIMPLE: iteration 1
diagonal:  Solving for rho, Initial residual = 0, Final residual = 0, No Iterations 0
DILUPBiCG:  Solving for Ux, Initial residual = 0.1594926411048948, Final residual = 4.880862641778705e-17, No Iterations 3
DILUPBiCG:  Solving for Uy, Initial residual = 0.1594926411032319, Final residual = 4.883233185142655e-17, No Iterations 3
DILUPBiCG:  Solving for Uz, Initial residual = 0.04606297623697017, Final residual = 5.064874569077075e-18, No Iterations 3
DILUPBiCG:  Solving for e, Initial residual = 0.04484976750221929, Final residual = 4.931804718387118e-18, No Iterations 3
DILUPBiCG:  Solving for p, Initial residual = 0.04588715306232578, Final residual = 1.091355338960524e-06, No Iterations 1
diagonal:  Solving for rho, Initial residual = 0, Final residual = 0, No Iterations 0
time step continuity errors : sum local = 2.877018057088932e-13, global = 2.862029180319965e-13, cumulative = 6.480080464957219e-13
DILUPBiCG:  Solving for p, Initial residual = 1.411489679933211e-06, Final residual = 8.251210501028111e-15, No Iterations 2
diagonal:  Solving for rho, Initial residual = 0, Final residual = 0, No Iterations 0
time step continuity errors : sum local = 1.937775324153029e-16, global = -1.756118422696261e-16, cumulative = 6.478324346534523e-13
DILUPBiCG:  Solving for k, Initial residual = 0.09963044376020422, Final residual = 1.522971704196856e-17, No Iterations 3
ExecutionTime = 260.8 s  ClockTime = 1215 s

ORIG_COMP_STEP = 10.48039884400009
ORIG_IO_STEP = 28.24927536200005
Courant Number mean: 3.679706244039683e-09 max: 0.007008909701043338
deltaT = 4.101862702460016e-07
Time = 2.45512e-06

PIMPLE: iteration 1
diagonal:  Solving for rho, Initial residual = 0, Final residual = 0, No Iterations 0
DILUPBiCG:  Solving for Ux, Initial residual = 0.1588222472670157, Final residual = 2.483403863150996e-16, No Iterations 3
DILUPBiCG:  Solving for Uy, Initial residual = 0.158822247266009, Final residual = 2.484433847398687e-16, No Iterations 3
DILUPBiCG:  Solving for Uz, Initial residual = 0.04574430357314601, Final residual = 2.519370126497535e-17, No Iterations 3
DILUPBiCG:  Solving for e, Initial residual = 0.04433555353351935, Final residual = 1.989096709695507e-17, No Iterations 3
DILUPBiCG:  Solving for p, Initial residual = 0.04556961215566238, Final residual = 1.647172595267162e-06, No Iterations 1
diagonal:  Solving for rho, Initial residual = 0, Final residual = 0, No Iterations 0
time step continuity errors : sum local = 5.175017659082882e-13, global = 5.140835270820585e-13, cumulative = 1.161915961735511e-12
DILUPBiCG:  Solving for p, Initial residual = 2.182282785073126e-06, Final residual = 2.978341550211667e-14, No Iterations 2
diagonal:  Solving for rho, Initial residual = 0, Final residual = 0, No Iterations 0
time step continuity errors : sum local = 1.893369479180946e-16, global = -1.728757862064413e-16, cumulative = 1.161743085949304e-12
DILUPBiCG:  Solving for k, Initial residual = 0.09933254878251722, Final residual = 6.388986649444417e-17, No Iterations 3
ExecutionTime = 269.68 s  ClockTime = 1255 s

ORIG_COMP_STEP = 8.820233958000017
ORIG_IO_STEP = 22.33001633000003
Courant Number mean: 4.473609574429078e-09 max: 0.008420730798800419
deltaT = 4.922235242952019e-07
Time = 2.94734e-06

PIMPLE: iteration 1
diagonal:  Solving for rho, Initial residual = 0, Final residual = 0, No Iterations 0
DILUPBiCG:  Solving for Ux, Initial residual = 0.1580902129566279, Final residual = 1.258465581842495e-15, No Iterations 3
DILUPBiCG:  Solving for Uy, Initial residual = 0.1580902129558194, Final residual = 1.258935866720585e-15, No Iterations 3
DILUPBiCG:  Solving for Uz, Initial residual = 0.04539487198208462, Final residual = 1.247632404837206e-16, No Iterations 3
DILUPBiCG:  Solving for e, Initial residual = 0.04376978219467997, Final residual = 8.021781107034982e-17, No Iterations 3
DILUPBiCG:  Solving for p, Initial residual = 0.04523103310830975, Final residual = 2.497316730163772e-06, No Iterations 1
diagonal:  Solving for rho, Initial residual = 0, Final residual = 0, No Iterations 0
time step continuity errors : sum local = 9.340466632182233e-13, global = 9.260867336155476e-13, cumulative = 2.087829819564852e-12
DILUPBiCG:  Solving for p, Initial residual = 3.378037494956492e-06, Final residual = 1.09313187893874e-13, No Iterations 2
diagonal:  Solving for rho, Initial residual = 0, Final residual = 0, No Iterations 0
time step continuity errors : sum local = 1.328953651800459e-16, global = 1.328943130221703e-17, cumulative = 2.087843108996154e-12
DILUPBiCG:  Solving for k, Initial residual = 0.09905044957694072, Final residual = 2.684350386984774e-16, No Iterations 3
ExecutionTime = 279.61 s  ClockTime = 1290 s

ORIG_COMP_STEP = 9.899216720999902
ORIG_IO_STEP = 21.98257124800011
Courant Number mean: 5.463072980091339e-09 max: 0.01013697500783073
deltaT = 5.906682291542422e-07
Time = 3.53801e-06

PIMPLE: iteration 1
diagonal:  Solving for rho, Initial residual = 0, Final residual = 0, No Iterations 0
DILUPBiCG:  Solving for Ux, Initial residual = 0.1572961536612708, Final residual = 6.347376586865663e-15, No Iterations 3
DILUPBiCG:  Solving for Uy, Initial residual = 0.1572961536605111, Final residual = 6.34967468662336e-15, No Iterations 3
DILUPBiCG:  Solving for Uz, Initial residual = 0.04501709517130961, Final residual = 6.147156179288597e-16, No Iterations 3
DILUPBiCG:  Solving for e, Initial residual = 0.04315714758321122, Final residual = 3.223512364909955e-16, No Iterations 3
DILUPBiCG:  Solving for p, Initial residual = 0.0448799524304589, Final residual = 3.799763207731961e-06, No Iterations 1
diagonal:  Solving for rho, Initial residual = 0, Final residual = 0, No Iterations 0
time step continuity errors : sum local = 1.690783314903157e-12, global = 1.670368453168689e-12, cumulative = 3.758211562164843e-12
DILUPBiCG:  Solving for p, Initial residual = 5.229199463885185e-06, Final residual = 4.111974135368054e-13, No Iterations 2
diagonal:  Solving for rho, Initial residual = 0, Final residual = 0, No Iterations 0
time step continuity errors : sum local = 2.782414355289581e-16, global = 2.673567378822901e-16, cumulative = 3.758478918902725e-12
DILUPBiCG:  Solving for k, Initial residual = 0.09878017761260088, Final residual = 1.127809128035935e-15, No Iterations 3
ExecutionTime = 293.3 s  ClockTime = 1326 s

ORIG_COMP_STEP = 13.69013819399993
ORIG_IO_STEP = 22.23738984900001
Courant Number mean: 6.710283964999764e-09 max: 0.01223925477539556
deltaT = 7.088018749850907e-07
Time = 4.24681e-06

PIMPLE: iteration 1
diagonal:  Solving for rho, Initial residual = 0, Final residual = 0, No Iterations 0
DILUPBiCG:  Solving for Ux, Initial residual = 0.1564459252670755, Final residual = 3.181580667681483e-14, No Iterations 3
DILUPBiCG:  Solving for Uy, Initial residual = 0.1564459252665548, Final residual = 3.182794995196409e-14, No Iterations 3
DILUPBiCG:  Solving for Uz, Initial residual = 0.04461829386965429, Final residual = 3.010081910182278e-15, No Iterations 3
DILUPBiCG:  Solving for e, Initial residual = 0.04251024629295186, Final residual = 1.284320339716893e-15, No Iterations 3
DILUPBiCG:  Solving for p, Initial residual = 0.04452784658126052, Final residual = 5.793771046377002e-06, No Iterations 1
diagonal:  Solving for rho, Initial residual = 0, Final residual = 0, No Iterations 0
time step continuity errors : sum local = 3.063849487340132e-12, global = 3.009803875863157e-12, cumulative = 6.768282794765883e-12
DILUPBiCG:  Solving for p, Initial residual = 8.085374881703589e-06, Final residual = 1.801750730825762e-16, No Iterations 3
diagonal:  Solving for rho, Initial residual = 0, Final residual = 0, No Iterations 0
time step continuity errors : sum local = 2.151809468915239e-16, global = -2.014092278994194e-16, cumulative = 6.768081385537983e-12
DILUPBiCG:  Solving for k, Initial residual = 0.09851718872004286, Final residual = 4.728454122818026e-15, No Iterations 3
ExecutionTime = 297.11 s  ClockTime = 1356 s

ORIG_COMP_STEP = 3.731968196000025
ORIG_IO_STEP = 22.77706779599998
Courant Number mean: 8.303816687789137e-09 max: 0.01484090785989582
deltaT = 8.505622499821088e-07
Time = 5.09737e-06

PIMPLE: iteration 1
diagonal:  Solving for rho, Initial residual = 0, Final residual = 0, No Iterations 0
DILUPBiCG:  Solving for Ux, Initial residual = 0.1555535905431473, Final residual = 1.580939414237956e-13, No Iterations 3
DILUPBiCG:  Solving for Uy, Initial residual = 0.1555535905428545, Final residual = 1.581632079951273e-13, No Iterations 3
DILUPBiCG:  Solving for Uz, Initial residual = 0.04421287871204874, Final residual = 1.462984213227925e-14, No Iterations 3
DILUPBiCG:  Solving for e, Initial residual = 0.04185187570128562, Final residual = 5.049758181377158e-15, No Iterations 3
DILUPBiCG:  Solving for p, Initial residual = 0.04418232304903168, Final residual = 8.838795123964046e-06, No Iterations 1
diagonal:  Solving for rho, Initial residual = 0, Final residual = 0, No Iterations 0
time step continuity errors : sum local = 5.550586900818443e-12, global = 5.40937356146695e-12, cumulative = 1.217745494700493e-11
DILUPBiCG:  Solving for p, Initial residual = 1.247142037578262e-05, Final residual = 8.757377317524434e-16, No Iterations 3
diagonal:  Solving for rho, Initial residual = 0, Final residual = 0, No Iterations 0
time step continuity errors : sum local = 2.46929825047063e-16, global = 1.53450679720215e-16, cumulative = 1.217760839768465e-11
DILUPBiCG:  Solving for k, Initial residual = 0.0982545473657481, Final residual = 1.972925951405353e-14, No Iterations 3
ExecutionTime = 303.75 s  ClockTime = 1387 s

ORIG_COMP_STEP = 6.588679240999909
ORIG_IO_STEP = 20.49760301400011
Courant Number mean: 1.037184646368908e-08 max: 0.01810325951619016
deltaT = 1.02067469997853e-06
Time = 6.11805e-06

PIMPLE: iteration 1
diagonal:  Solving for rho, Initial residual = 0, Final residual = 0, No Iterations 0
DILUPBiCG:  Solving for Ux, Initial residual = 0.1546427263760391, Final residual = 7.763189880947345e-13, No Iterations 3
DILUPBiCG:  Solving for Uy, Initial residual = 0.1546427263758742, Final residual = 7.767379348180195e-13, No Iterations 3
DILUPBiCG:  Solving for Uz, Initial residual = 0.04382494303208037, Final residual = 7.050015671630041e-14, No Iterations 3
DILUPBiCG:  Solving for e, Initial residual = 0.04121580885069139, Final residual = 1.943445958524046e-14, No Iterations 3
DILUPBiCG:  Solving for p, Initial residual = 0.04386306173938309, Final residual = 1.344616039744025e-05, No Iterations 1
diagonal:  Solving for rho, Initial residual = 0, Final residual = 0, No Iterations 0
time step continuity errors : sum local = 1.002006241737164e-11, global = 9.649257901836656e-12, cumulative = 2.182686629952131e-11
DILUPBiCG:  Solving for p, Initial residual = 1.915007787163184e-05, Final residual = 4.273188629457887e-15, No Iterations 3
diagonal:  Solving for rho, Initial residual = 0, Final residual = 0, No Iterations 0
time step continuity errors : sum local = 1.799503566208661e-16, global = -5.849344671077348e-17, cumulative = 2.18268078060746e-11
DILUPBiCG:  Solving for k, Initial residual = 0.09797986849315962, Final residual = 8.160846091839166e-14, No Iterations 3
ExecutionTime = 313.09 s  ClockTime = 1424 s

ORIG_COMP_STEP = 9.311626661999981
ORIG_IO_STEP = 18.47519391599985
Courant Number mean: 1.310173464825618e-08 max: 0.02226018111808836
deltaT = 1.224809639974236e-06
Time = 7.34286e-06

PIMPLE: iteration 1
[...]
DILUPBiCG:  Solving for k, Initial residual = 0.009425447850073893, Final residual = 1.68906817812006e-14, No Iterations 6
ExecutionTime = 1715.13 s  ClockTime = 9949 s

ORIG_COMP_STEP = 9.620445773998654
ORIG_IO_STEP = 86.21853027200086
Courant Number mean: 9.474010125271662e-07 max: 0.2037780300618211
deltaT = 2.909018090836269e-06
Time = 0.000148277

PIMPLE: iteration 1
diagonal:  Solving for rho, Initial residual = 0, Final residual = 0, No Iterations 0
DILUPBiCG:  Solving for Ux, Initial residual = 0.01940816606237829, Final residual = 7.229724719199261e-13, No Iterations 5
DILUPBiCG:  Solving for Uy, Initial residual = 0.01940815812570328, Final residual = 7.33448402616655e-13, No Iterations 5
DILUPBiCG:  Solving for Uz, Initial residual = 0.009424665268355215, Final residual = 4.380590007333112e-13, No Iterations 5
DILUPBiCG:  Solving for e, Initial residual = 0.01241034933372989, Final residual = 7.558824943000318e-13, No Iterations 5
DILUPBiCG:  Solving for p, Initial residual = 0.01601649115238385, Final residual = 3.676422034930983e-05, No Iterations 1
diagonal:  Solving for rho, Initial residual = 0, Final residual = 0, No Iterations 0
time step continuity errors : sum local = 6.45008952024274e-10, global = -1.71493228155137e-10, cumulative = -1.731774741900366e-09
DILUPBiCG:  Solving for p, Initial residual = 0.0001373899788811006, Final residual = 1.997239750697503e-14, No Iterations 5
diagonal:  Solving for rho, Initial residual = 0, Final residual = 0, No Iterations 0
time step continuity errors : sum local = 1.747033263575829e-16, global = 4.511544746451517e-17, cumulative = -1.731774696784919e-09
DILUPBiCG:  Solving for k, Initial residual = 0.009218993112204948, Final residual = 1.268933934425264e-14, No Iterations 6
ExecutionTime = 1749.65 s  ClockTime = 10073 s

ORIG_COMP_STEP = 34.25775277699904
ORIG_IO_STEP = 86.08003176799866
Courant Number mean: 9.586309586249831e-07 max: 0.203345538978271
deltaT = 2.861157520792336e-06
Time = 0.000151138

PIMPLE: iteration 1
diagonal:  Solving for rho, Initial residual = 0, Final residual = 0, No Iterations 0
DILUPBiCG:  Solving for Ux, Initial residual = 0.01878773152881642, Final residual = 7.406747868555162e-13, No Iterations 5
DILUPBiCG:  Solving for Uy, Initial residual = 0.01878773645211926, Final residual = 7.733064258894798e-13, No Iterations 5
DILUPBiCG:  Solving for Uz, Initial residual = 0.009130785037711217, Final residual = 3.883117942466299e-13, No Iterations 5
DILUPBiCG:  Solving for e, Initial residual = 0.0122418434363892, Final residual = 6.974012161466913e-13, No Iterations 5
DILUPBiCG:  Solving for p, Initial residual = 0.01582940855267585, Final residual = 3.366468431712508e-05, No Iterations 1
diagonal:  Solving for rho, Initial residual = 0, Final residual = 0, No Iterations 0
time step continuity errors : sum local = 6.031802445260501e-10, global = -1.577845014561866e-10, cumulative = -1.889559198241105e-09
DILUPBiCG:  Solving for p, Initial residual = 0.000128165060305462, Final residual = 1.58450338450639e-14, No Iterations 5
diagonal:  Solving for rho, Initial residual = 0, Final residual = 0, No Iterations 0
time step continuity errors : sum local = 1.795746982327805e-16, global = -7.918311576914365e-17, cumulative = -1.889559277424221e-09
DILUPBiCG:  Solving for k, Initial residual = 0.009028972545917493, Final residual = 3.582469760487489e-13, No Iterations 5
ExecutionTime = 1773.09 s  ClockTime = 10193 s

ORIG_COMP_STEP = 23.10250323600121
ORIG_IO_STEP = 93.98657979300151
Courant Number mean: 9.69981018500941e-07 max: 0.2026317274765943
deltaT = 2.823997560917809e-06
Time = 0.000153962

PIMPLE: iteration 1
diagonal:  Solving for rho, Initial residual = 0, Final residual = 0, No Iterations 0
DILUPBiCG:  Solving for Ux, Initial residual = 0.01825075244393977, Final residual = 7.487963067850823e-13, No Iterations 5
DILUPBiCG:  Solving for Uy, Initial residual = 0.01825071390837353, Final residual = 8.145147175612065e-13, No Iterations 5
DILUPBiCG:  Solving for Uz, Initial residual = 0.008880054016216122, Final residual = 3.544914883315888e-13, No Iterations 5
DILUPBiCG:  Solving for e, Initial residual = 0.01216486903219902, Final residual = 7.931617988974161e-13, No Iterations 5
DILUPBiCG:  Solving for p, Initial residual = 0.01558259230042628, Final residual = 3.24040375401902e-05, No Iterations 1
diagonal:  Solving for rho, Initial residual = 0, Final residual = 0, No Iterations 0
time step continuity errors : sum local = 5.9251153555023e-10, global = -1.565229968866267e-10, cumulative = -2.046082274310848e-09
DILUPBiCG:  Solving for p, Initial residual = 0.0001337088396707387, Final residual = 2.586326630521775e-14, No Iterations 5
diagonal:  Solving for rho, Initial residual = 0, Final residual = 0, No Iterations 0
time step continuity errors : sum local = 1.708750238964519e-16, global = 5.126474468806381e-17, cumulative = -2.046082223046103e-09
DILUPBiCG:  Solving for k, Initial residual = 0.00890021517562198, Final residual = 1.29169575446846e-13, No Iterations 6
ExecutionTime = 1794.4 s  ClockTime = 10320 s

ORIG_COMP_STEP = 20.91796156899909
ORIG_IO_STEP = 88.47235214799912
Courant Number mean: 9.839390306446568e-07 max: 0.2018232808714038
deltaT = 2.798485436095123e-06
Time = 0.00015676

PIMPLE: iteration 1
diagonal:  Solving for rho, Initial residual = 0, Final residual = 0, No Iterations 0
DILUPBiCG:  Solving for Ux, Initial residual = 0.01784005395635296, Final residual = 7.345669398960235e-13, No Iterations 5
DILUPBiCG:  Solving for Uy, Initial residual = 0.01783999273205015, Final residual = 8.478125507463887e-13, No Iterations 5
DILUPBiCG:  Solving for Uz, Initial residual = 0.008702444332669538, Final residual = 3.321603784153085e-13, No Iterations 5
DILUPBiCG:  Solving for e, Initial residual = 0.01198541785744931, Final residual = 3.828432736720434e-13, No Iterations 5
DILUPBiCG:  Solving for p, Initial residual = 0.0152967758309424, Final residual = 3.234245033684228e-05, No Iterations 1
diagonal:  Solving for rho, Initial residual = 0, Final residual = 0, No Iterations 0
time step continuity errors : sum local = 6.031596385154784e-10, global = -1.597716215338398e-10, cumulative = -2.205853844579943e-09
DILUPBiCG:  Solving for p, Initial residual = 0.0001257919962160155, Final residual = 2.780451884882247e-14, No Iterations 5
diagonal:  Solving for rho, Initial residual = 0, Final residual = 0, No Iterations 0
time step continuity errors : sum local = 1.709005899973491e-16, global = 5.907054993937661e-17, cumulative = -2.205853785509393e-09
DILUPBiCG:  Solving for k, Initial residual = 0.008842102124770952, Final residual = 6.221882004368402e-13, No Iterations 5
ExecutionTime = 1812.21 s  ClockTime = 10436 s

ORIG_COMP_STEP = 17.41345181200086
ORIG_IO_STEP = 107.0345405810003
Courant Number mean: 1.002030229026195e-06 max: 0.2012138169902744
deltaT = 2.78160364725885e-06
Time = 0.000159542

PIMPLE: iteration 1
diagonal:  Solving for rho, Initial residual = 0, Final residual = 0, No Iterations 0
DILUPBiCG:  Solving for Ux, Initial residual = 0.01751013754007921, Final residual = 6.951021576287507e-13, No Iterations 5
DILUPBiCG:  Solving for Uy, Initial residual = 0.01751009289471796, Final residual = 8.462319001768404e-13, No Iterations 5
DILUPBiCG:  Solving for Uz, Initial residual = 0.008567575083009, Final residual = 3.143659599982265e-13, No Iterations 5
DILUPBiCG:  Solving for e, Initial residual = 0.01171588883754956, Final residual = 6.598738194378869e-13, No Iterations 5
DILUPBiCG:  Solving for p, Initial residual = 0.0150204665895544, Final residual = 3.290883054965213e-05, No Iterations 1
diagonal:  Solving for rho, Initial residual = 0, Final residual = 0, No Iterations 0
time step continuity errors : sum local = 6.256444338993667e-10, global = -1.754804183036731e-10, cumulative = -2.381334203813066e-09
DILUPBiCG:  Solving for p, Initial residual = 0.0001237600820321994, Final residual = 2.599558781339791e-14, No Iterations 5
diagonal:  Solving for rho, Initial residual = 0, Final residual = 0, No Iterations 0
time step continuity errors : sum local = 1.800408069166944e-16, global = 9.550691266502738e-17, cumulative = -2.381334108306154e-09
DILUPBiCG:  Solving for k, Initial residual = 0.008843711963482553, Final residual = 2.403215571199133e-13, No Iterations 5
ExecutionTime = 1822.49 s  ClockTime = 10565 s

ORIG_COMP_STEP = 9.74141497599885
ORIG_IO_STEP = 81.50141194400021
Courant Number mean: 1.02348323854306e-06 max: 0.2009346368036951
deltaT = 2.768665165455121e-06
Time = 0.000162311

PIMPLE: iteration 1
diagonal:  Solving for rho, Initial residual = 0, Final residual = 0, No Iterations 0
DILUPBiCG:  Solving for Ux, Initial residual = 0.01720863288880449, Final residual = 6.390305987691692e-13, No Iterations 5
DILUPBiCG:  Solving for Uy, Initial residual = 0.01720861286255631, Final residual = 8.05067764413929e-13, No Iterations 5
DILUPBiCG:  Solving for Uz, Initial residual = 0.008447598633320641, Final residual = 2.969524463923507e-13, No Iterations 5
DILUPBiCG:  Solving for e, Initial residual = 0.0115145015510461, Final residual = 1.267956261885161e-13, No Iterations 5
DILUPBiCG:  Solving for p, Initial residual = 0.0149102798368084, Final residual = 3.283917403187571e-05, No Iterations 1
diagonal:  Solving for rho, Initial residual = 0, Final residual = 0, No Iterations 0
time step continuity errors : sum local = 6.361860973215227e-10, global = -1.844246871497158e-10, cumulative = -2.565758795455869e-09
DILUPBiCG:  Solving for p, Initial residual = 0.0001103661868743108, Final residual = 1.727365962415414e-13, No Iterations 5
diagonal:  Solving for rho, Initial residual = 0, Final residual = 0, No Iterations 0
time step continuity errors : sum local = 1.68768493198091e-16, global = -4.11706899202102e-17, cumulative = -2.565758836626559e-09
DILUPBiCG:  Solving for k, Initial residual = 0.008891596643435784, Final residual = 7.475212746974792e-15, No Iterations 6
ExecutionTime = 1853.43 s  ClockTime = 10680 s

ORIG_COMP_STEP = 30.68740697500107
ORIG_IO_STEP = 85.78579153500141
Courant Number mean: 1.046101857560312e-06 max: 0.2009194411820989
deltaT = 2.755995287629522e-06
Time = 0.000165067

PIMPLE: iteration 1
diagonal:  Solving for rho, Initial residual = 0, Final residual = 0, No Iterations 0
DILUPBiCG:  Solving for Ux, Initial residual = 0.01688732579548408, Final residual = 5.70553941047144e-13, No Iterations 5
DILUPBiCG:  Solving for Uy, Initial residual = 0.01688731025558632, Final residual = 7.275746631630761e-13, No Iterations 5
DILUPBiCG:  Solving for Uz, Initial residual = 0.00830953859694202, Final residual = 2.768146025243147e-13, No Iterations 5
DILUPBiCG:  Solving for e, Initial residual = 0.01144579881714109, Final residual = 1.513832840643946e-13, No Iterations 5
DILUPBiCG:  Solving for p, Initial residual = 0.01488505069280858, Final residual = 3.160717514480958e-05, No Iterations 1
diagonal:  Solving for rho, Initial residual = 0, Final residual = 0, No Iterations 0
time step continuity errors : sum local = 6.236978854318286e-10, global = -1.744914046626331e-10, cumulative = -2.740250241289192e-09
DILUPBiCG:  Solving for p, Initial residual = 0.0001023215338347402, Final residual = 8.71717042279704e-15, No Iterations 5
diagonal:  Solving for rho, Initial residual = 0, Final residual = 0, No Iterations 0
time step continuity errors : sum local = 1.686616665831369e-16, global = 5.732858851384283e-17, cumulative = -2.740250183960604e-09
DILUPBiCG:  Solving for k, Initial residual = 0.008970521363621406, Final residual = 1.198020371706447e-14, No Iterations 6
ExecutionTime = 1873.94 s  ClockTime = 10793 s

ORIG_COMP_STEP = 20.16075848800028
ORIG_IO_STEP = 84.90362000200003
Courant Number mean: 1.068279081678053e-06 max: 0.2009862852471982
deltaT = 2.742470994217181e-06
Time = 0.000167809

PIMPLE: iteration 1
diagonal:  Solving for rho, Initial residual = 0, Final residual = 0, No Iterations 0
DILUPBiCG:  Solving for Ux, Initial residual = 0.01656898972743653, Final residual = 4.795707433208052e-13, No Iterations 5
DILUPBiCG:  Solving for Uy, Initial residual = 0.01656894516257039, Final residual = 6.028484303024502e-13, No Iterations 5
DILUPBiCG:  Solving for Uz, Initial residual = 0.008169747495231978, Final residual = 2.506748913659017e-13, No Iterations 5
DILUPBiCG:  Solving for e, Initial residual = 0.01139156916215274, Final residual = 9.602988384276599e-14, No Iterations 5
DILUPBiCG:  Solving for p, Initial residual = 0.01479479465063128, Final residual = 2.986773328956155e-05, No Iterations 1
diagonal:  Solving for rho, Initial residual = 0, Final residual = 0, No Iterations 0
time step continuity errors : sum local = 6.00099119753858e-10, global = -1.508367048064701e-10, cumulative = -2.891086888767074e-09
DILUPBiCG:  Solving for p, Initial residual = 0.0001214664751980606, Final residual = 1.771458463064506e-14, No Iterations 5
diagonal:  Solving for rho, Initial residual = 0, Final residual = 0, No Iterations 0
time step continuity errors : sum local = 1.703629096525512e-16, global = -6.985023681941073e-17, cumulative = -2.891086958617311e-09
DILUPBiCG:  Solving for k, Initial residual = 0.009033318201488503, Final residual = 1.357615276342933e-13, No Iterations 6
ExecutionTime = 1909.82 s  ClockTime = 10917 s

ORIG_COMP_STEP = 35.65054824299841
ORIG_IO_STEP = 97.91942758500045
Courant Number mean: 1.089422014583071e-06 max: 0.2001732077019399
deltaT = 2.740097963860116e-06
Time = 0.000170549

PIMPLE: iteration 1
diagonal:  Solving for rho, Initial residual = 0, Final residual = 0, No Iterations 0
DILUPBiCG:  Solving for Ux, Initial residual = 0.01634286895072606, Final residual = 4.063017608242167e-13, No Iterations 5
DILUPBiCG:  Solving for Uy, Initial residual = 0.0163428137027702, Final residual = 5.005580595630824e-13, No Iterations 5
DILUPBiCG:  Solving for Uz, Initial residual = 0.008070806518335694, Final residual = 2.285061738088503e-13, No Iterations 5
DILUPBiCG:  Solving for e, Initial residual = 0.01129100655303608, Final residual = 8.079726062397699e-13, No Iterations 4
DILUPBiCG:  Solving for p, Initial residual = 0.01468222327584383, Final residual = 2.938658718327144e-05, No Iterations 1
diagonal:  Solving for rho, Initial residual = 0, Final residual = 0, No Iterations 0
time step continuity errors : sum local = 6.010190449191649e-10, global = -1.47542010567521e-10, cumulative = -3.038628969184832e-09
DILUPBiCG:  Solving for p, Initial residual = 0.0001193810908762164, Final residual = 3.144190178961028e-14, No Iterations 5
diagonal:  Solving for rho, Initial residual = 0, Final residual = 0, No Iterations 0
time step continuity errors : sum local = 1.721594202769705e-16, global = -7.604135126282465e-17, cumulative = -3.038629045226183e-09
DILUPBiCG:  Solving for k, Initial residual = 0.009100858290344075, Final residual = 2.162238361928371e-14, No Iterations 6
ExecutionTime = 1916.19 s  ClockTime = 11038 s

ORIG_COMP_STEP = 5.804823501999635
ORIG_IO_STEP = 88.43139886799872
Courant Number mean: 1.115008869574974e-06 max: 0.1996717392974701
deltaT = 2.744602689895855e-06
Time = 0.000173294

PIMPLE: iteration 1
diagonal:  Solving for rho, Initial residual = 0, Final residual = 0, No Iterations 0
DILUPBiCG:  Solving for Ux, Initial residual = 0.01619991336661866, Final residual = 3.540160789361563e-13, No Iterations 5
DILUPBiCG:  Solving for Uy, Initial residual = 0.01619986702582785, Final residual = 4.295183277590181e-13, No Iterations 5
DILUPBiCG:  Solving for Uz, Initial residual = 0.008006870815604451, Final residual = 2.133199595014161e-13, No Iterations 5
DILUPBiCG:  Solving for e, Initial residual = 0.01123260592165323, Final residual = 8.198308035756182e-13, No Iterations 4
DILUPBiCG:  Solving for p, Initial residual = 0.01462795756015163, Final residual = 2.943929785341381e-05, No Iterations 1
diagonal:  Solving for rho, Initial residual = 0, Final residual = 0, No Iterations 0
time step continuity errors : sum local = 6.127850445939025e-10, global = -1.562448580507817e-10, cumulative = -3.194873903276965e-09
DILUPBiCG:  Solving for p, Initial residual = 0.0001041127782085944, Final residual = 9.348415789903892e-15, No Iterations 5
diagonal:  Solving for rho, Initial residual = 0, Final residual = 0, No Iterations 0
time step continuity errors : sum local = 1.770125915445456e-16, global = 9.111853047920579e-17, cumulative = -3.194873812158434e-09
DILUPBiCG:  Solving for k, Initial residual = 0.009157637732152937, Final residual = 8.027951534109769e-15, No Iterations 6
ExecutionTime = 1923.43 s  ClockTime = 11151 s

ORIG_COMP_STEP = 6.75233188600032
ORIG_IO_STEP = 84.54944193000119
Courant Number mean: 1.143941746775958e-06 max: 0.1995704407933798
deltaT = 2.75051022484577e-06
Time = 0.000176044

PIMPLE: iteration 1
diagonal:  Solving for rho, Initial residual = 0, Final residual = 0, No Iterations 0
DILUPBiCG:  Solving for Ux, Initial residual = 0.01607112798444864, Final residual = 3.175935248060096e-13, No Iterations 5
DILUPBiCG:  Solving for Uy, Initial residual = 0.01607108114259097, Final residual = 3.822461206849925e-13, No Iterations 5
DILUPBiCG:  Solving for Uz, Initial residual = 0.007960308648166648, Final residual = 2.040793389501691e-13, No Iterations 5
DILUPBiCG:  Solving for e, Initial residual = 0.01116874198923954, Final residual = 7.689251543563281e-13, No Iterations 4
DILUPBiCG:  Solving for p, Initial residual = 0.01457552804945969, Final residual = 3.011960023998092e-05, No Iterations 1
diagonal:  Solving for rho, Initial residual = 0, Final residual = 0, No Iterations 0
time step continuity errors : sum local = 6.379560171462546e-10, global = -1.765029961979438e-10, cumulative = -3.371376808356378e-09
DILUPBiCG:  Solving for p, Initial residual = 0.0001087422765277779, Final residual = 6.899608451015254e-14, No Iterations 5
diagonal:  Solving for rho, Initial residual = 0, Final residual = 0, No Iterations 0
time step continuity errors : sum local = 1.635146137837238e-16, global = 1.20427112011243e-17, cumulative = -3.371376796313667e-09
DILUPBiCG:  Solving for k, Initial residual = 0.009185265139636125, Final residual = 4.522076824662585e-14, No Iterations 5
ExecutionTime = 1950.7 s  ClockTime = 11266 s

ORIG_COMP_STEP = 26.98770708899974
ORIG_IO_STEP = 87.5397622090004
Courant Number mean: 1.173924075158943e-06 max: 0.199618736113321
deltaT = 2.75576359053223e-06
Time = 0.0001788

PIMPLE: iteration 1
diagonal:  Solving for rho, Initial residual = 0, Final residual = 0, No Iterations 0
DILUPBiCG:  Solving for Ux, Initial residual = 0.0159237325515839, Final residual = 2.903872868355845e-13, No Iterations 5
DILUPBiCG:  Solving for Uy, Initial residual = 0.01592369790117547, Final residual = 3.483263775853996e-13, No Iterations 5
DILUPBiCG:  Solving for Uz, Initial residual = 0.007903515034110315, Final residual = 1.963285597515721e-13, No Iterations 5
DILUPBiCG:  Solving for e, Initial residual = 0.01116931440335438, Final residual = 6.676855003584625e-13, No Iterations 4
DILUPBiCG:  Solving for p, Initial residual = 0.01457933027522288, Final residual = 2.980974876060301e-05, No Iterations 1
diagonal:  Solving for rho, Initial residual = 0, Final residual = 0, No Iterations 0
time step continuity errors : sum local = 6.423533345159047e-10, global = -1.710710261153477e-10, cumulative = -3.542447822429015e-09
DILUPBiCG:  Solving for p, Initial residual = 0.0001032147824126233, Final residual = 1.331104642552717e-13, No Iterations 5
diagonal:  Solving for rho, Initial residual = 0, Final residual = 0, No Iterations 0
time step continuity errors : sum local = 1.644090482607949e-16, global = 1.127597213653194e-18, cumulative = -3.542447821301417e-09
DILUPBiCG:  Solving for k, Initial residual = 0.009187972319138506, Final residual = 9.32619697283023e-13, No Iterations 5
ExecutionTime = 1974.66 s  ClockTime = 11393 s

ORIG_COMP_STEP = 23.57702210399839
