/*---------------------------------------------------------------------------*\
| =========                 |                                                 |
| \\      /  F ield         | OpenFOAM: The Open Source CFD Toolbox           |
|  \\    /   O peration     | Version:  v1912                                 |
|   \\  /    A nd           | Website:  www.openfoam.com                      |
|    \\/     M anipulation  |                                                 |
\*---------------------------------------------------------------------------*/
Build  : _f3950763fe-20191219 OPENFOAM=1912
Arch   : "LSB;label=32;scalar=64"
Exec   : rhoPimpleAPIO_METRICS -parallel
Date   : Oct 27 2020
Time   : 13:00:43
Host   : r44c1t7n2
PID    : 65294
I/O    : uncollated
Case   : /lustre/cray/ws9/2/ws/hpcmcast-ashee2/HAWK/apio_32M/512
nProcs : 512
Hosts  :
(
    (r44c1t7n2 128)
    (r44c1t7n3 128)
    (r44c1t7n4 128)
    (r44c1t8n2 128)
)
Pstream initialized with:
    floatTransfer      : 0
    nProcsSimpleSum    : 0
    commsType          : nonBlocking
    polling iterations : 0
trapFpe: Floating point exception trapping enabled (FOAM_SIGFPE).
fileModificationChecking : Monitoring run-time modified files using timeStampMaster (fileModificationSkew 10)
allowSystemOperations : Allowing user-supplied system call operations

// * * * * * * * * * * * * * * * * * * * * * * * * * * * * * * * * * * * * * //
Create time

Create mesh for time = 0


PIMPLE: Operating solver in PISO mode

Reading thermophysical properties

Selecting thermodynamics package 
{
    type            hePsiThermo;
    mixture         pureMixture;
    transport       const;
    thermo          eConst;
    equationOfState perfectGas;
    specie          specie;
    energy          sensibleInternalEnergy;
}

Reading field U

Reading/calculating face flux field phi

--> FOAM Warning : 
    From function Foam::pressureControl::pressureControl(const volScalarField&, const volScalarField&, const Foam::dictionary&, bool)
    in file cfdTools/general/pressureControl/pressureControl.C at line 123
    Reading "/lustre/cray/ws9/2/ws/hpcmcast-ashee2/HAWK/apio_32M/512/system/fvSolution.PIMPLE"
    'rhoMax' specified rather than 'pMax' or 'pMaxFactor'
    This is supported for backward-compatibility but 'pMax' or 'pMaxFactor' are more reliable.
--> FOAM Warning : 
    From function Foam::pressureControl::pressureControl(const volScalarField&, const volScalarField&, const Foam::dictionary&, bool)
    in file cfdTools/general/pressureControl/pressureControl.C at line 178
    Reading "/lustre/cray/ws9/2/ws/hpcmcast-ashee2/HAWK/apio_32M/512/system/fvSolution.PIMPLE"
    'rhoMin' specified rather than 'pMin' or 'pMinFactor'
    This is supported for backward-compatibility but 'pMin' or 'pMinFactor' are more reliable.
pressureControl
    pMax 1726187.557059955
    pMin 4747.015781914877

Creating turbulence model

Selecting turbulence model type LES
Selecting LES turbulence model kEqn
Selecting LES delta type cubeRootVol
LES
{
    LESModel        kEqn;
    turbulence      on;
    printCoeffs     on;
    delta           cubeRootVol;
    cubeRootVolCoeffs
    {
        deltaCoeff      1;
    }
    PrandtlCoeffs
    {
        delta           cubeRootVol;
        cubeRootVolCoeffs
        {
            deltaCoeff      1;
        }
        smoothCoeffs
        {
            delta           cubeRootVol;
            cubeRootVolCoeffs
            {
                deltaCoeff      1;
            }
            maxDeltaRatio   1.1;
        }
        Cdelta          0.158;
    }
    vanDriestCoeffs
    {
        delta           cubeRootVol;
        cubeRootVolCoeffs
        {
            deltaCoeff      1;
        }
        smoothCoeffs
        {
            delta           cubeRootVol;
            cubeRootVolCoeffs
            {
                deltaCoeff      1;
            }
            maxDeltaRatio   1.1;
        }
        Aplus           26;
        Cdelta          0.158;
    }
    smoothCoeffs
    {
        delta           cubeRootVol;
        cubeRootVolCoeffs
        {
            deltaCoeff      1;
        }
        maxDeltaRatio   1.1;
    }
    Ce              1.048;
    Ck              0.094;
}

Creating field dpdt

Creating field kinetic energy K

No MRF models present

APIO_procNo = 80
APIO_procNo = 81
APIO_procNo = 82
APIO_procNo = 83
APIO_procNo = 84
APIO_procNo = 85
APIO_procNo = 86
APIO_procNo = 87
APIO_procNo = 88
APIO_procNo = 89
APIO_procNo = 90
APIO_procNo = 91
writeThread 91 on CPU 219
APIO_procNo = 92
APIO_procNo = 93
APIO_procNo = 94
APIO_procNo = 95
APIO_procNo = 96
APIO_procNo = 97
APIO_procNo = 98
APIO_procNo = 99
APIO_procNo = 100
APIO_procNo = 101
APIO_procNo = 102
APIO_procNo = 103
APIO_procNo = 104
APIO_procNo = 105
APIO_procNo = 106
APIO_procNo = 107
APIO_procNo = 108
APIO_procNo = 109
APIO_procNo = 110
APIO_procNo = 111
APIO_procNo = 112
APIO_procNo = 113
APIO_procNo = 114
APIO_procNo = 115
APIO_procNo = 116
APIO_procNo = 117
APIO_procNo = 118
APIO_procNo = 119
APIO_procNo = 120
APIO_procNo = 121
APIO_procNo = 122
APIO_procNo = 123
APIO_procNo = 124
APIO_procNo = 125
APIO_procNo = 126
APIO_procNo = 127
No finite volume options present
APIO_procNo = 0
APIO_masterNo = 0
APIO_procNo = 1
writeThread 1 on CPU 129
APIO_procNo = 2
writeThread 2 on CPU 130
APIO_procNo = 3
writeThread 3 on CPU 131
APIO_procNo = 4
writeThread 4 on CPU 132
APIO_procNo = 5
writeThread 5 on CPU 133
APIO_procNo = 6
writeThread 6 on CPU 134
APIO_procNo = 7
writeThread 7 on CPU 135
APIO_procNo = 8
writeThread 8 on CPU 136
APIO_procNo = 9
writeThread 9 on CPU 137
APIO_procNo = 10
writeThread 10 on CPU 138
APIO_procNo = 11
writeThread 11 on CPU 139
APIO_procNo = 12
writeThread 12 on CPU 140
APIO_procNo = 13
writeThread 13 on CPU 141
APIO_procNo = 14
writeThread 14 on CPU 142
APIO_procNo = 15
writeThread 15 on CPU 143
APIO_procNo = 16
writeThread 16 on CPU 144
APIO_procNo = 17
writeThread 17 on CPU 145
APIO_procNo = 18
writeThread 18 on CPU 146
APIO_procNo = 19
writeThread 19 on CPU 147
APIO_procNo = 20
writeThread 20 on CPU 148
APIO_procNo = 21
writeThread 21 on CPU 149
APIO_procNo = 22
writeThread 22 on CPU 150
APIO_procNo = 23
writeThread 23 on CPU 151
APIO_procNo = 24
writeThread 24 on CPU 152
APIO_procNo = 25
writeThread 25 on CPU 153
APIO_procNo = 26
writeThread 26 on CPU 154
APIO_procNo = 27
writeThread 27 on CPU 155
APIO_procNo = 28
writeThread 28 on CPU 156
APIO_procNo = 29
writeThread 29 on CPU 157
APIO_procNo = 30
writeThread 30 on CPU 158
APIO_procNo = 31
writeThread 31 on CPU 159
APIO_procNo = 32
writeThread 32 on CPU 160
APIO_procNo = 33
writeThread 33 on CPU 161
APIO_procNo = 34
writeThread 34 on CPU 162
APIO_procNo = 35
writeThread 35 on CPU 163
APIO_procNo = 36
writeThread 36 on CPU 164
APIO_procNo = 37
writeThread 37 on CPU 165
APIO_procNo = 38
writeThread 38 on CPU 166
APIO_procNo = 39
writeThread 39 on CPU 167
APIO_procNo = 40
writeThread 40 on CPU 168
APIO_procNo = 41
writeThread 41 on CPU 169
APIO_procNo = 42
writeThread 42 on CPU 170
APIO_procNo = 43
writeThread 43 on CPU 171
APIO_procNo = 44
writeThread 44 on CPU 172
APIO_procNo = 45
writeThread 45 on CPU 173
APIO_procNo = 46
writeThread 46 on CPU 174
APIO_procNo = 47
writeThread 47 on CPU 175
APIO_procNo = 48
writeThread 48 on CPU 176
APIO_procNo = 49
writeThread 49 on CPU 177
APIO_procNo = 50
writeThread 50 on CPU 178
APIO_procNo = 51
writeThread 51 on CPU 179
APIO_procNo = 52
writeThread 52 on CPU 180
APIO_procNo = 53
writeThread 53 on CPU 181
APIO_procNo = 54
writeThread 54 on CPU 182
APIO_procNo = 55
writeThread 55 on CPU 183
APIO_procNo = 56
writeThread 56 on CPU 184
APIO_procNo = 57
writeThread 57 on CPU 185
APIO_procNo = 58
writeThread 58 on CPU 186
APIO_procNo = 59
writeThread 59 on CPU 187
APIO_procNo = 60
writeThread 60 on CPU 188
APIO_procNo = 61
writeThread 61 on CPU 189
APIO_procNo = 62
writeThread 62 on CPU 190
APIO_procNo = 63
writeThread 63 on CPU 191
APIO_procNo = 64
writeThread 64 on CPU 192
APIO_procNo = 65
writeThread 65 on CPU 193
APIO_procNo = 66
writeThread 66 on CPU 194
APIO_procNo = 67
writeThread 67 on CPU 195
APIO_procNo = 68
writeThread 68 on CPU 196
APIO_procNo = 69
writeThread 69 on CPU 197
APIO_procNo = 70
writeThread 70 on CPU 198
APIO_procNo = 71
writeThread 71 on CPU 199
APIO_procNo = 72
writeThread 72 on CPU 200
APIO_procNo = 73
writeThread 73 on CPU 201
APIO_procNo = 74
writeThread 74 on CPU 202
APIO_procNo = 75
writeThread 75 on CPU 203
APIO_procNo = 76
writeThread 76 on CPU 204
APIO_procNo = 77
writeThread 77 on CPU 205
APIO_procNo = 78
writeThread 78 on CPU 206
APIO_procNo = 79
writeThread 79 on CPU 207
writeThread 89 on CPU 217
writeThread 90 on CPU 218
writeThread 92 on CPU 220
writeThread 93 on CPU 221
writeThread 94 on CPU 222
writeThread 95 on CPU 223
writeThread 96 on CPU 224
writeThread 97 on CPU 225
writeThread 98 on CPU 226
writeThread 99 on CPU 227
writeThread 100 on CPU 228
writeThread 101 on CPU 229
writeThread 102 on CPU 230
writeThread 103 on CPU 231
writeThread 104 on CPU 232
writeThread 105 on CPU 233
writeThread 106 on CPU 234
writeThread 107 on CPU 235
writeThread 108 on CPU 236
writeThread 109 on CPU 237
writeThread 110 on CPU 238
writeThread 111 on CPU 239
writeThread 112 on CPU 240
writeThread 113 on CPU 241
writeThread 114 on CPU 242
writeThread 115 on CPU 243
writeThread 116 on CPU 244
writeThread 118 on CPU 246
writeThread 119 on CPU 247
writeThread 120 on CPU 248
writeThread 121 on CPU 249
writeThread 122 on CPU 250
writeThread 123 on CPU 251
writeThread 124 on CPU 252
writeThread 125 on CPU 253
writeThread 126 on CPU 254
writeThread 0 on CPU 128
writeThread 127 on CPU 255
writeThread 80 on CPU 208
writeThread 81 on CPU 209
writeThread 82 on CPU 210
writeThread 83 on CPU 211
writeThread 84 on CPU 212
writeThread 85 on CPU 213
writeThread 86 on CPU 214
writeThread 87 on CPU 215
writeThread 88 on CPU 216
writeThread 117 on CPU 245
APIO_procNo = 384
APIO_procNo = 385
APIO_procNo = 256
APIO_procNo = 128
writeThread 128 on CPU 128
APIO_procNo = 386
APIO_procNo = 257
APIO_procNo = 129
writeThread 129 on CPU 129
APIO_procNo = 387
APIO_procNo = 258
APIO_procNo = 130
writeThread 130 on CPU 130
APIO_procNo = 388
APIO_procNo = 259
APIO_procNo = 131
writeThread 131 on CPU 131
APIO_procNo = 389
APIO_procNo = 260
APIO_procNo = 132
writeThread 132 on CPU 132
APIO_procNo = 390
APIO_procNo = 261
APIO_procNo = 133
writeThread 133 on CPU 133
APIO_procNo = 391
APIO_procNo = 262
APIO_procNo = 134
writeThread 134 on CPU 134
APIO_procNo = 392
APIO_procNo = 263
APIO_procNo = 135
writeThread 135 on CPU 135
APIO_procNo = 393
APIO_procNo = 264
APIO_procNo = 136
writeThread 136 on CPU 136
APIO_procNo = 265
APIO_procNo = 137
writeThread 137 on CPU 137
APIO_procNo = 394
APIO_procNo = 395
APIO_procNo = 266
APIO_procNo = 396
writeThread 396 on CPU 140
APIO_procNo = 267
APIO_procNo = 138
writeThread 138 on CPU 138
APIO_procNo = 397
APIO_procNo = 268
APIO_procNo = 139
writeThread 139 on CPU 139
APIO_procNo = 398
APIO_procNo = 269
APIO_procNo = 140
writeThread 140 on CPU 140
APIO_procNo = 399
APIO_procNo = 270
APIO_procNo = 141
writeThread 141 on CPU 141
APIO_procNo = 400
writeThread 400 on CPU 144
APIO_procNo = 271
APIO_procNo = 142
writeThread 142 on CPU 142
APIO_procNo = 401
writeThread 401 on CPU 145
APIO_procNo = 272
writeThread 272 on CPU 144
APIO_procNo = 143
writeThread 143 on CPU 143
APIO_procNo = 402
writeThread 402 on CPU 146
APIO_procNo = 273
writeThread 273 on CPU 145
APIO_procNo = 144
APIO_procNo = 403
writeThread 403 on CPU 147
APIO_procNo = 274
writeThread 274 on CPU 146
APIO_procNo = 145
APIO_procNo = 404
writeThread 404 on CPU 148
APIO_procNo = 275
writeThread 275 on CPU 147
APIO_procNo = 146
APIO_procNo = 405
writeThread 405 on CPU 149
APIO_procNo = 276
writeThread 276 on CPU 148
APIO_procNo = 147
APIO_procNo = 406
writeThread 406 on CPU 150
APIO_procNo = 277
writeThread 277 on CPU 149
APIO_procNo = 148
APIO_procNo = 407
writeThread 407 on CPU 151
APIO_procNo = 278
writeThread 278 on CPU 150
APIO_procNo = 149
APIO_procNo = 408
writeThread 408 on CPU 152
APIO_procNo = 279
writeThread 279 on CPU 151
APIO_procNo = 150
APIO_procNo = 409
writeThread 409 on CPU 153
APIO_procNo = 280
writeThread 280 on CPU 152
APIO_procNo = 151
APIO_procNo = 410
writeThread 410 on CPU 154
APIO_procNo = 281
writeThread 281 on CPU 153
APIO_procNo = 152
APIO_procNo = 411
writeThread 411 on CPU 155
APIO_procNo = 282
writeThread 282 on CPU 154
APIO_procNo = 153
APIO_procNo = 412
writeThread 412 on CPU 156
APIO_procNo = 283
writeThread 283 on CPU 155
APIO_procNo = 154
APIO_procNo = 413
writeThread 413 on CPU 157
APIO_procNo = 284
APIO_procNo = 155
APIO_procNo = 414
writeThread 414 on CPU 158
APIO_procNo = 285
APIO_procNo = 156
APIO_procNo = 415
writeThread 415 on CPU 159
APIO_procNo = 286
APIO_procNo = 157
APIO_procNo = 416
writeThread 416 on CPU 160
APIO_procNo = 287
APIO_procNo = 158
APIO_procNo = 417
writeThread 417 on CPU 161
APIO_procNo = 288
APIO_procNo = 159
APIO_procNo = 418
writeThread 418 on CPU 162
APIO_procNo = 289
APIO_procNo = 160
APIO_procNo = 419
writeThread 419 on CPU 163
APIO_procNo = 290
APIO_procNo = 161
APIO_procNo = 420
writeThread 420 on CPU 164
APIO_procNo = 291
APIO_procNo = 162
APIO_procNo = 421
writeThread 421 on CPU 165
APIO_procNo = 292
APIO_procNo = 163
APIO_procNo = 422
writeThread 422 on CPU 166
APIO_procNo = 293
APIO_procNo = 164
APIO_procNo = 423
writeThread 423 on CPU 167
APIO_procNo = 294
APIO_procNo = 165
APIO_procNo = 424
writeThread 424 on CPU 168
APIO_procNo = 295
APIO_procNo = 166
APIO_procNo = 425
writeThread 425 on CPU 169
APIO_procNo = 296
APIO_procNo = 167
Courant Number mean: 4.134521852225827e-11 max: 2.085039370078742e-05
APIO_procNo = 426
writeThread 426 on CPU 170
APIO_procNo = 297
APIO_procNo = 168
APIO_procNo = 427
writeThread 427 on CPU 171
APIO_procNo = 298
writeThread 298 on CPU 170
APIO_procNo = 169
APIO_procNo = 428
writeThread 428 on CPU 172
APIO_procNo = 299
writeThread 299 on CPU 171
APIO_procNo = 170
APIO_procNo = 429
writeThread 429 on CPU 173
APIO_procNo = 300
writeThread 300 on CPU 172
APIO_procNo = 171
APIO_procNo = 430
writeThread 430 on CPU 174
APIO_procNo = 301
writeThread 301 on CPU 173
APIO_procNo = 172

Starting time loop

APIO_procNo = 431
writeThread 431 on CPU 175
APIO_procNo = 302
writeThread 302 on CPU 174
APIO_procNo = 173
APIO_procNo = 432
writeThread 432 on CPU 176
APIO_procNo = 303
writeThread 303 on CPU 175
APIO_procNo = 174
APIO_procNo = 433
writeThread 433 on CPU 177
APIO_procNo = 304
writeThread 304 on CPU 176
APIO_procNo = 175
APIO_procNo = 434
writeThread 434 on CPU 178
APIO_procNo = 305
writeThread 305 on CPU 177
APIO_procNo = 176
APIO_procNo = 435
writeThread 435 on CPU 179
APIO_procNo = 306
writeThread 306 on CPU 178
APIO_procNo = 177
APIO_procNo = 436
writeThread 436 on CPU 180
APIO_procNo = 307
writeThread 307 on CPU 179
APIO_procNo = 178
APIO_procNo = 437
writeThread 437 on CPU 181
APIO_procNo = 308
writeThread 308 on CPU 180
APIO_procNo = 179
APIO_procNo = 438
writeThread 438 on CPU 182
APIO_procNo = 309
writeThread 309 on CPU 181
APIO_procNo = 180
APIO_procNo = 439
writeThread 439 on CPU 183
APIO_procNo = 310
writeThread 310 on CPU 182
APIO_procNo = 181
APIO_procNo = 440
writeThread 440 on CPU 184
APIO_procNo = 311
writeThread 311 on CPU 183
APIO_procNo = 182
writeThread 182 on CPU 182
APIO_procNo = 441
writeThread 441 on CPU 185
APIO_procNo = 312
writeThread 312 on CPU 184
APIO_procNo = 183
writeThread 183 on CPU 183
APIO_procNo = 442
writeThread 442 on CPU 186
APIO_procNo = 313
writeThread 313 on CPU 185
APIO_procNo = 184
APIO_procNo = 443
writeThread 443 on CPU 187
APIO_procNo = 314
writeThread 314 on CPU 186
APIO_procNo = 185
APIO_procNo = 444
APIO_procNo = 315
writeThread 315 on CPU 187
APIO_procNo = 186
APIO_procNo = 445
APIO_procNo = 316
writeThread 316 on CPU 188
APIO_procNo = 187
APIO_procNo = 446
APIO_procNo = 317
writeThread 317 on CPU 189
APIO_procNo = 188
APIO_procNo = 447
APIO_procNo = 318
writeThread 318 on CPU 190
APIO_procNo = 189
APIO_procNo = 448
APIO_procNo = 319
writeThread 319 on CPU 191
APIO_procNo = 190
APIO_procNo = 449
writeThread 449 on CPU 193
APIO_procNo = 320
APIO_procNo = 191
APIO_procNo = 450
writeThread 450 on CPU 194
APIO_procNo = 321
APIO_procNo = 192
writeThread 192 on CPU 192
APIO_procNo = 451
writeThread 451 on CPU 195
APIO_procNo = 322
APIO_procNo = 193
writeThread 193 on CPU 193
APIO_procNo = 452
writeThread 452 on CPU 196
APIO_procNo = 323
APIO_procNo = 194
writeThread 194 on CPU 194
APIO_procNo = 453
writeThread 453 on CPU 197
APIO_procNo = 324
writeThread 324 on CPU 196
APIO_procNo = 195
writeThread 195 on CPU 195
APIO_procNo = 454
writeThread 454 on CPU 198
APIO_procNo = 325
writeThread 325 on CPU 197
APIO_procNo = 196
writeThread 196 on CPU 196
APIO_procNo = 455
writeThread 455 on CPU 199
APIO_procNo = 326
writeThread 326 on CPU 198
APIO_procNo = 197
writeThread 197 on CPU 197
APIO_procNo = 456
writeThread 456 on CPU 200
APIO_procNo = 327
writeThread 327 on CPU 199
APIO_procNo = 198
writeThread 198 on CPU 198
APIO_procNo = 457
writeThread 457 on CPU 201
APIO_procNo = 328
writeThread 328 on CPU 200
APIO_procNo = 199
writeThread 199 on CPU 199
APIO_procNo = 458
writeThread 458 on CPU 202
APIO_procNo = 329
writeThread 329 on CPU 201
APIO_procNo = 200
writeThread 200 on CPU 200
APIO_procNo = 459
writeThread 459 on CPU 203
APIO_procNo = 330
writeThread 330 on CPU 202
APIO_procNo = 201
writeThread 201 on CPU 201
APIO_procNo = 460
writeThread 460 on CPU 204
APIO_procNo = 331
writeThread 331 on CPU 203
APIO_procNo = 202
writeThread 202 on CPU 202
APIO_procNo = 461
writeThread 461 on CPU 205
APIO_procNo = 332
writeThread 332 on CPU 204
APIO_procNo = 203
writeThread 203 on CPU 203
APIO_procNo = 462
writeThread 462 on CPU 206
APIO_procNo = 333
writeThread 333 on CPU 205
APIO_procNo = 204
writeThread 204 on CPU 204
APIO_procNo = 463
writeThread 463 on CPU 207
APIO_procNo = 334
writeThread 334 on CPU 206
APIO_procNo = 205
writeThread 205 on CPU 205
APIO_procNo = 464
writeThread 464 on CPU 208
APIO_procNo = 335
APIO_procNo = 206
writeThread 206 on CPU 206
APIO_procNo = 465
writeThread 465 on CPU 209
APIO_procNo = 336
APIO_procNo = 207
writeThread 207 on CPU 207
APIO_procNo = 466
writeThread 466 on CPU 210
APIO_procNo = 337
writeThread 337 on CPU 209
APIO_procNo = 208
APIO_procNo = 467
writeThread 467 on CPU 211
APIO_procNo = 338
writeThread 338 on CPU 210
APIO_procNo = 209
writeThread 209 on CPU 209
APIO_procNo = 468
writeThread 468 on CPU 212
APIO_procNo = 339
writeThread 339 on CPU 211
APIO_procNo = 210
writeThread 210 on CPU 210
APIO_procNo = 469
writeThread 469 on CPU 213
APIO_procNo = 340
writeThread 340 on CPU 212
APIO_procNo = 211
writeThread 211 on CPU 211
APIO_procNo = 470
writeThread 470 on CPU 214
APIO_procNo = 341
writeThread 341 on CPU 213
APIO_procNo = 212
writeThread 212 on CPU 212
APIO_procNo = 471
writeThread 471 on CPU 215
APIO_procNo = 342
writeThread 342 on CPU 214
APIO_procNo = 213
writeThread 213 on CPU 213
APIO_procNo = 472
writeThread 472 on CPU 216
APIO_procNo = 343
writeThread 343 on CPU 215
APIO_procNo = 214
writeThread 214 on CPU 214
APIO_procNo = 473
writeThread 473 on CPU 217
APIO_procNo = 344
writeThread 344 on CPU 216
APIO_procNo = 215
writeThread 215 on CPU 215
APIO_procNo = 474
writeThread 474 on CPU 218
APIO_procNo = 345
writeThread 345 on CPU 217
APIO_procNo = 216
writeThread 216 on CPU 216
Courant Number mean: 4.134521852225827e-11 max: 2.085039370078742e-05
deltaT = 1.2e-09
APIO_procNo = 475
writeThread 475 on CPU 219
APIO_procNo = 346
writeThread 346 on CPU 218
APIO_procNo = 217
writeThread 217 on CPU 217
Time = 1.2e-09

PIMPLE: iteration 1
APIO_procNo = 476
writeThread 476 on CPU 220
APIO_procNo = 347
writeThread 347 on CPU 219
APIO_procNo = 218
writeThread 218 on CPU 218
APIO_procNo = 477
writeThread 477 on CPU 221
APIO_procNo = 348
writeThread 348 on CPU 220
APIO_procNo = 219
writeThread 219 on CPU 219
APIO_procNo = 478
writeThread 478 on CPU 222
APIO_procNo = 349
writeThread 349 on CPU 221
APIO_procNo = 220
writeThread 220 on CPU 220
APIO_procNo = 479
writeThread 479 on CPU 223
APIO_procNo = 350
writeThread 350 on CPU 222
APIO_procNo = 221
writeThread 221 on CPU 221
APIO_procNo = 480
writeThread 480 on CPU 224
APIO_procNo = 351
writeThread 351 on CPU 223
APIO_procNo = 222
writeThread 222 on CPU 222
APIO_procNo = 481
writeThread 481 on CPU 225
APIO_procNo = 352
writeThread 352 on CPU 224
APIO_procNo = 223
writeThread 223 on CPU 223
APIO_procNo = 482
writeThread 482 on CPU 226
APIO_procNo = 353
writeThread 353 on CPU 225
APIO_procNo = 224
writeThread 224 on CPU 224
APIO_procNo = 483
writeThread 483 on CPU 227
APIO_procNo = 354
writeThread 354 on CPU 226
APIO_procNo = 225
writeThread 225 on CPU 225
APIO_procNo = 484
writeThread 484 on CPU 228
APIO_procNo = 355
writeThread 355 on CPU 227
APIO_procNo = 226
writeThread 226 on CPU 226
APIO_procNo = 485
writeThread 485 on CPU 229
APIO_procNo = 356
writeThread 356 on CPU 228
APIO_procNo = 227
writeThread 227 on CPU 227
APIO_procNo = 486
writeThread 486 on CPU 230
APIO_procNo = 357
writeThread 357 on CPU 229
APIO_procNo = 228
writeThread 228 on CPU 228
APIO_procNo = 487
writeThread 487 on CPU 231
APIO_procNo = 358
writeThread 358 on CPU 230
APIO_procNo = 229
writeThread 229 on CPU 229
APIO_procNo = 488
writeThread 488 on CPU 232
APIO_procNo = 359
writeThread 359 on CPU 231
APIO_procNo = 230
writeThread 230 on CPU 230
APIO_procNo = 489
writeThread 489 on CPU 233
APIO_procNo = 360
writeThread 360 on CPU 232
APIO_procNo = 231
writeThread 231 on CPU 231
APIO_procNo = 490
writeThread 490 on CPU 234
APIO_procNo = 361
writeThread 361 on CPU 233
APIO_procNo = 232
writeThread 232 on CPU 232
APIO_procNo = 491
writeThread 491 on CPU 235
APIO_procNo = 362
writeThread 362 on CPU 234
APIO_procNo = 233
writeThread 233 on CPU 233
APIO_procNo = 492
writeThread 492 on CPU 236
APIO_procNo = 363
writeThread 363 on CPU 235
APIO_procNo = 234
writeThread 234 on CPU 234
APIO_procNo = 493
writeThread 493 on CPU 237
APIO_procNo = 364
writeThread 364 on CPU 236
APIO_procNo = 235
writeThread 235 on CPU 235
APIO_procNo = 494
writeThread 494 on CPU 238
APIO_procNo = 365
writeThread 365 on CPU 237
APIO_procNo = 236
writeThread 236 on CPU 236
APIO_procNo = 495
writeThread 495 on CPU 239
APIO_procNo = 366
writeThread 366 on CPU 238
APIO_procNo = 237
writeThread 237 on CPU 237
APIO_procNo = 496
writeThread 496 on CPU 240
APIO_procNo = 367
writeThread 367 on CPU 239
APIO_procNo = 238
writeThread 238 on CPU 238
APIO_procNo = 497
writeThread 497 on CPU 241
APIO_procNo = 368
writeThread 368 on CPU 240
APIO_procNo = 239
writeThread 239 on CPU 239
APIO_procNo = 498
writeThread 498 on CPU 242
APIO_procNo = 369
writeThread 369 on CPU 241
APIO_procNo = 240
writeThread 240 on CPU 240
APIO_procNo = 499
writeThread 499 on CPU 243
APIO_procNo = 370
writeThread 370 on CPU 242
APIO_procNo = 241
writeThread 241 on CPU 241
APIO_procNo = 500
writeThread 500 on CPU 244
APIO_procNo = 371
writeThread 371 on CPU 243
APIO_procNo = 242
writeThread 242 on CPU 242
APIO_procNo = 501
writeThread 501 on CPU 245
APIO_procNo = 372
writeThread 372 on CPU 244
APIO_procNo = 243
writeThread 243 on CPU 243
APIO_procNo = 502
writeThread 502 on CPU 246
APIO_procNo = 373
writeThread 373 on CPU 245
APIO_procNo = 244
writeThread 244 on CPU 244
APIO_procNo = 503
writeThread 503 on CPU 247
APIO_procNo = 374
writeThread 374 on CPU 246
APIO_procNo = 245
writeThread 245 on CPU 245
APIO_procNo = 504
writeThread 504 on CPU 248
APIO_procNo = 375
writeThread 375 on CPU 247
APIO_procNo = 246
writeThread 246 on CPU 246
APIO_procNo = 505
writeThread 505 on CPU 249
APIO_procNo = 376
writeThread 376 on CPU 248
APIO_procNo = 247
writeThread 247 on CPU 247
APIO_procNo = 506
writeThread 506 on CPU 250
APIO_procNo = 377
writeThread 377 on CPU 249
APIO_procNo = 248
writeThread 248 on CPU 248
APIO_procNo = 507
writeThread 507 on CPU 251
APIO_procNo = 378
writeThread 378 on CPU 250
APIO_procNo = 249
writeThread 249 on CPU 249
APIO_procNo = 508
writeThread 508 on CPU 252
APIO_procNo = 379
APIO_procNo = 250
writeThread 250 on CPU 250
APIO_procNo = 509
writeThread 509 on CPU 253
APIO_procNo = 380
writeThread 380 on CPU 252
APIO_procNo = 251
writeThread 251 on CPU 251
APIO_procNo = 510
writeThread 510 on CPU 254
APIO_procNo = 381
writeThread 381 on CPU 253
APIO_procNo = 252
writeThread 252 on CPU 252
APIO_procNo = 511
APIO_procNo = 382
writeThread 382 on CPU 254
APIO_procNo = 253
writeThread 384 on CPU 128
APIO_procNo = 383
writeThread 383 on CPU 255
APIO_procNo = 254
writeThread 254 on CPU 254
diagonal:  Solving for rho, Initial residual = 0, Final residual = 0, No Iterations 0
writeThread 385 on CPU 129
writeThread 256 on CPU 128
APIO_procNo = 255
writeThread 255 on CPU 255
writeThread 386 on CPU 130
writeThread 257 on CPU 129
writeThread 144 on CPU 144
writeThread 387 on CPU 131
writeThread 258 on CPU 130
writeThread 145 on CPU 145
writeThread 388 on CPU 132
writeThread 259 on CPU 131
writeThread 146 on CPU 146
writeThread 389 on CPU 133
writeThread 260 on CPU 132
writeThread 147 on CPU 147
writeThread 390 on CPU 134
writeThread 261 on CPU 133
writeThread 148 on CPU 148
writeThread 391 on CPU 135
writeThread 262 on CPU 134
writeThread 149 on CPU 149
writeThread 392 on CPU 136
writeThread 263 on CPU 135
writeThread 150 on CPU 150
writeThread 393 on CPU 137
writeThread 264 on CPU 136
writeThread 151 on CPU 151
writeThread 394 on CPU 138
writeThread 265 on CPU 137
writeThread 152 on CPU 152
writeThread 395 on CPU 139
writeThread 266 on CPU 138
writeThread 153 on CPU 153
writeThread 397 on CPU 141
writeThread 267 on CPU 139
writeThread 154 on CPU 154
writeThread 398 on CPU 142
writeThread 268 on CPU 140
writeThread 155 on CPU 155
writeThread 399 on CPU 143
writeThread 269 on CPU 141
writeThread 156 on CPU 156
writeThread 444 on CPU 188
writeThread 270 on CPU 142
writeThread 157 on CPU 157
writeThread 445 on CPU 189
writeThread 271 on CPU 143
writeThread 158 on CPU 158
writeThread 446 on CPU 190
writeThread 284 on CPU 156
writeThread 159 on CPU 159
writeThread 447 on CPU 191
writeThread 285 on CPU 157
writeThread 160 on CPU 160
writeThread 448 on CPU 192
writeThread 286 on CPU 158
writeThread 161 on CPU 161
writeThread 511 on CPU 255
writeThread 287 on CPU 159
writeThread 162 on CPU 162
writeThread 288 on CPU 160
writeThread 163 on CPU 163
writeThread 289 on CPU 161
writeThread 164 on CPU 164
writeThread 290 on CPU 162
writeThread 165 on CPU 165
writeThread 291 on CPU 163
writeThread 166 on CPU 166
writeThread 292 on CPU 164
writeThread 167 on CPU 167
writeThread 293 on CPU 165
writeThread 168 on CPU 168
writeThread 294 on CPU 166
writeThread 169 on CPU 169
writeThread 295 on CPU 167
writeThread 170 on CPU 170
writeThread 296 on CPU 168
writeThread 171 on CPU 171
writeThread 297 on CPU 169
writeThread 172 on CPU 172
writeThread 320 on CPU 192
writeThread 173 on CPU 173
writeThread 321 on CPU 193
writeThread 174 on CPU 174
writeThread 322 on CPU 194
writeThread 175 on CPU 175
writeThread 323 on CPU 195
writeThread 176 on CPU 176
writeThread 335 on CPU 207
writeThread 177 on CPU 177
writeThread 336 on CPU 208
writeThread 178 on CPU 178
writeThread 379 on CPU 251
writeThread 179 on CPU 179
writeThread 180 on CPU 180
writeThread 181 on CPU 181
writeThread 184 on CPU 184
writeThread 185 on CPU 185
writeThread 186 on CPU 186
writeThread 187 on CPU 187
writeThread 188 on CPU 188
writeThread 189 on CPU 189
writeThread 190 on CPU 190
writeThread 191 on CPU 191
writeThread 208 on CPU 208
writeThread 253 on CPU 253
DILUPBiCG:  Solving for Ux, Initial residual = 1, Final residual = 2.400821135260076e-20, No Iterations 2
DILUPBiCG:  Solving for Uy, Initial residual = 1, Final residual = 7.83697225276279e-21, No Iterations 2
DILUPBiCG:  Solving for Uz, Initial residual = 1, Final residual = 2.000634126255483e-20, No Iterations 2
DILUPBiCG:  Solving for e, Initial residual = 0.9999990152459558, Final residual = 8.046780500177346e-20, No Iterations 2
DILUPBiCG:  Solving for p, Initial residual = 0.9999996243058712, Final residual = 2.465849828531394e-10, No Iterations 1
pEqnloop: 0
diagonal:  Solving for rho, Initial residual = 0, Final residual = 0, No Iterations 0
time step continuity errors : sum local = 2.454897033059872e-16, global = -2.450079008599975e-16, cumulative = -2.450079008599975e-16
DILUPBiCG:  Solving for p, Initial residual = 1.179369358813103e-07, Final residual = 1.165832594549339e-16, No Iterations 1
pEqnloop: 1
diagonal:  Solving for rho, Initial residual = 0, Final residual = 0, No Iterations 0
time step continuity errors : sum local = 2.681614396634535e-16, global = -2.671853525391833e-16, cumulative = -5.121932533991807e-16
DILUPBiCG:  Solving for k, Initial residual = 0.9999999989225227, Final residual = 2.001466998483226e-20, No Iterations 2
ExecutionTime = 2.09 s  ClockTime = 3 s

Courant Number mean: 4.961451094356506e-11 max: 2.501990921293873e-05
deltaT = 1.44e-09
Time = 2.64e-09

PIMPLE: iteration 1
diagonal:  Solving for rho, Initial residual = 0, Final residual = 0, No Iterations 0
DILUPBiCG:  Solving for Ux, Initial residual = 0.3749195240684504, Final residual = 5.444365015249518e-21, No Iterations 2
DILUPBiCG:  Solving for Uy, Initial residual = 0.3749195240694402, Final residual = 1.770918367874172e-21, No Iterations 2
DILUPBiCG:  Solving for Uz, Initial residual = 0.230760175717041, Final residual = 2.802826668407449e-21, No Iterations 2
DILUPBiCG:  Solving for e, Initial residual = 0.2307511997436603, Final residual = 1.125243209761694e-20, No Iterations 2
DILUPBiCG:  Solving for p, Initial residual = 0.2307584156693296, Final residual = 3.431166527828762e-11, No Iterations 1
pEqnloop: 0
diagonal:  Solving for rho, Initial residual = 0, Final residual = 0, No Iterations 0
time step continuity errors : sum local = 5.515912102609077e-16, global = -5.515192586890581e-16, cumulative = -1.063712512088239e-15
DILUPBiCG:  Solving for p, Initial residual = 7.89014173805499e-08, Final residual = 4.068555350743302e-15, No Iterations 1
pEqnloop: 1
diagonal:  Solving for rho, Initial residual = 0, Final residual = 0, No Iterations 0
time step continuity errors : sum local = 4.80587877850931e-16, global = -4.805809979726649e-16, cumulative = -1.544293510060903e-15
DILUPBiCG:  Solving for k, Initial residual = 0.7612500412424583, Final residual = 9.261564953574485e-21, No Iterations 2
ExecutionTime = 4.98 s  ClockTime = 6 s

Courant Number mean: 5.953777282881991e-11 max: 3.002308059560315e-05
deltaT = 1.728e-09
Time = 4.368e-09

PIMPLE: iteration 1
diagonal:  Solving for rho, Initial residual = 0, Final residual = 0, No Iterations 0
DILUPBiCG:  Solving for Ux, Initial residual = 0.3231077196464707, Final residual = 6.819548111821359e-21, No Iterations 2
DILUPBiCG:  Solving for Uy, Initial residual = 0.3231077195889747, Final residual = 2.196212605394087e-21, No Iterations 2
DILUPBiCG:  Solving for Uz, Initial residual = 0.1406145040468577, Final residual = 2.508983817375827e-21, No Iterations 2
DILUPBiCG:  Solving for e, Initial residual = 0.140606593013355, Final residual = 1.0017701732617e-20, No Iterations 2
DILUPBiCG:  Solving for p, Initial residual = 0.1406128363179021, Final residual = 3.011331406513694e-11, No Iterations 1
pEqnloop: 0
diagonal:  Solving for rho, Initial residual = 0, Final residual = 0, No Iterations 0
time step continuity errors : sum local = 6.62386645028795e-16, global = -6.622727578446343e-16, cumulative = -2.206566267905538e-15
DILUPBiCG:  Solving for p, Initial residual = 5.022476125340155e-08, Final residual = 1.690495742400113e-14, No Iterations 1
pEqnloop: 1
diagonal:  Solving for rho, Initial residual = 0, Final residual = 0, No Iterations 0
time step continuity errors : sum local = 6.46022139630243e-16, global = -6.460218231792836e-16, cumulative = -2.852588091084821e-15
DILUPBiCG:  Solving for k, Initial residual = 0.5223926728209608, Final residual = 9.35588683515693e-21, No Iterations 2
ExecutionTime = 7.53 s  ClockTime = 10 s

Courant Number mean: 7.144584772633205e-11 max: 3.602653054273847e-05
deltaT = 2.0736e-09
Time = 6.4416e-09

PIMPLE: iteration 1
diagonal:  Solving for rho, Initial residual = 0, Final residual = 0, No Iterations 0
DILUPBiCG:  Solving for Ux, Initial residual = 0.2861774460012438, Final residual = 8.845152747984667e-21, No Iterations 2
DILUPBiCG:  Solving for Uy, Initial residual = 0.2861774459396531, Final residual = 2.797172815526754e-21, No Iterations 2
DILUPBiCG:  Solving for Uz, Initial residual = 0.1060780689587346, Final residual = 2.824356949993885e-21, No Iterations 2
DILUPBiCG:  Solving for e, Initial residual = 0.1060690324671233, Final residual = 1.116945920008951e-20, No Iterations 2
DILUPBiCG:  Solving for p, Initial residual = 0.1060760658639372, Final residual = 3.272269278827666e-11, No Iterations 1
pEqnloop: 0
diagonal:  Solving for rho, Initial residual = 0, Final residual = 0, No Iterations 0
time step continuity errors : sum local = 3.529527453397629e-16, global = -3.496554318272083e-16, cumulative = -3.20224352291203e-15
DILUPBiCG:  Solving for p, Initial residual = 3.567966905551857e-08, Final residual = 2.480608997643497e-14, No Iterations 1
pEqnloop: 1
diagonal:  Solving for rho, Initial residual = 0, Final residual = 0, No Iterations 0
time step continuity errors : sum local = 3.794878204825313e-16, global = -3.787589870415737e-16, cumulative = -3.581002509953604e-15
DILUPBiCG:  Solving for k, Initial residual = 0.3755564138407447, Final residual = 1.007265495198326e-20, No Iterations 2
ExecutionTime = 10.02 s  ClockTime = 14 s

Courant Number mean: 8.573577152513136e-11 max: 4.323015923841613e-05
deltaT = 2.48832e-09
Time = 8.92992e-09

PIMPLE: iteration 1
diagonal:  Solving for rho, Initial residual = 0, Final residual = 0, No Iterations 0
DILUPBiCG:  Solving for Ux, Initial residual = 0.2580115706272911, Final residual = 1.1774242249511e-20, No Iterations 2
DILUPBiCG:  Solving for Uy, Initial residual = 0.2580115707727289, Final residual = 3.622481855910747e-21, No Iterations 2
DILUPBiCG:  Solving for Uz, Initial residual = 0.08805286406073091, Final residual = 3.55555722685857e-21, No Iterations 2
DILUPBiCG:  Solving for e, Initial residual = 0.08804225828219168, Final residual = 1.387394288490415e-20, No Iterations 2
DILUPBiCG:  Solving for p, Initial residual = 0.08805033228040168, Final residual = 3.912968217294121e-11, No Iterations 1
pEqnloop: 0
diagonal:  Solving for rho, Initial residual = 0, Final residual = 0, No Iterations 0
time step continuity errors : sum local = 1.235330195703119e-16, global = -4.375769004737188e-17, cumulative = -3.624760200000976e-15
DILUPBiCG:  Solving for p, Initial residual = 2.012166927367775e-08, Final residual = 1.109442628728811e-14, No Iterations 1
pEqnloop: 1
diagonal:  Solving for rho, Initial residual = 0, Final residual = 0, No Iterations 0
time step continuity errors : sum local = 1.134846467771135e-16, global = -2.368950709016286e-17, cumulative = -3.648449707091139e-15
DILUPBiCG:  Solving for k, Initial residual = 0.2906877194100289, Final residual = 1.189185271265184e-20, No Iterations 2
ExecutionTime = 12.1 s  ClockTime = 17 s

Courant Number mean: 1.02884021222287e-10 max: 5.187377896431863e-05
deltaT = 2.985983999999999e-09
Time = 1.19159e-08

PIMPLE: iteration 1
diagonal:  Solving for rho, Initial residual = 0, Final residual = 0, No Iterations 0
DILUPBiCG:  Solving for Ux, Initial residual = 0.2369027227582724, Final residual = 1.610726254457856e-20, No Iterations 2
DILUPBiCG:  Solving for Uy, Initial residual = 0.2369027228638335, Final residual = 4.769712750502259e-21, No Iterations 2
DILUPBiCG:  Solving for Uz, Initial residual = 0.07712864145506629, Final residual = 4.803132955564352e-21, No Iterations 2
DILUPBiCG:  Solving for e, Initial residual = 0.07711582076358656, Final residual = 1.842989904946048e-20, No Iterations 2
DILUPBiCG:  Solving for p, Initial residual = 0.07712531674453947, Final residual = 4.938229139008159e-11, No Iterations 1
pEqnloop: 0
diagonal:  Solving for rho, Initial residual = 0, Final residual = 0, No Iterations 0
time step continuity errors : sum local = 3.649578866166233e-16, global = 3.641669819063708e-16, cumulative = -3.284282725184768e-15
DILUPBiCG:  Solving for p, Initial residual = 1.304025050263848e-08, Final residual = 8.706171455793797e-15, No Iterations 1
pEqnloop: 1
diagonal:  Solving for rho, Initial residual = 0, Final residual = 0, No Iterations 0
time step continuity errors : sum local = 3.770827930209223e-16, global = 3.71799374687986e-16, cumulative = -2.912483350496782e-15
DILUPBiCG:  Solving for k, Initial residual = 0.2385158222502934, Final residual = 1.517904128839208e-20, No Iterations 2
ExecutionTime = 15.84 s  ClockTime = 21 s

Courant Number mean: 1.234624193969182e-10 max: 6.224506732903098e-05
deltaT = 3.583180799999999e-09
Time = 1.54991e-08

PIMPLE: iteration 1
diagonal:  Solving for rho, Initial residual = 0, Final residual = 0, No Iterations 0
DILUPBiCG:  Solving for Ux, Initial residual = 0.2210519481331718, Final residual = 2.262250552268801e-20, No Iterations 2
DILUPBiCG:  Solving for Uy, Initial residual = 0.2210519481313479, Final residual = 6.365428727619399e-21, No Iterations 2
DILUPBiCG:  Solving for Uz, Initial residual = 0.0698995124125445, Final residual = 6.830970805590799e-21, No Iterations 2
DILUPBiCG:  Solving for e, Initial residual = 0.0698841689046113, Final residual = 2.570249347863738e-20, No Iterations 2
DILUPBiCG:  Solving for p, Initial residual = 0.06989549192064475, Final residual = 6.448885327958527e-11, No Iterations 1
pEqnloop: 0
diagonal:  Solving for rho, Initial residual = 0, Final residual = 0, No Iterations 0
time step continuity errors : sum local = 3.215303134373314e-16, global = 3.21153936042912e-16, cumulative = -2.59132941445387e-15
DILUPBiCG:  Solving for p, Initial residual = 1.016312506251336e-08, Final residual = 6.590577312568318e-15, No Iterations 1
pEqnloop: 1
diagonal:  Solving for rho, Initial residual = 0, Final residual = 0, No Iterations 0
time step continuity errors : sum local = 3.150840550353003e-16, global = 3.139816570978824e-16, cumulative = -2.277347757355987e-15
DILUPBiCG:  Solving for k, Initial residual = 0.2042783053778932, Final residual = 2.06591780661267e-20, No Iterations 2
ExecutionTime = 18.02 s  ClockTime = 25 s

Courant Number mean: 1.481572278474789e-10 max: 7.468909815230524e-05
deltaT = 4.299816959999999e-09
Time = 1.97989e-08

PIMPLE: iteration 1
diagonal:  Solving for rho, Initial residual = 0, Final residual = 0, No Iterations 0
DILUPBiCG:  Solving for Ux, Initial residual = 0.2090173761873427, Final residual = 3.257433107450855e-20, No Iterations 2
DILUPBiCG:  Solving for Uy, Initial residual = 0.2090173761493838, Final residual = 8.572296789340915e-21, No Iterations 2
DILUPBiCG:  Solving for Uz, Initial residual = 0.06483314997476634, Final residual = 1.012387568760459e-20, No Iterations 2
DILUPBiCG:  Solving for e, Initial residual = 0.06481486809125038, Final residual = 3.728078683767412e-20, No Iterations 2
DILUPBiCG:  Solving for p, Initial residual = 0.06482828608594576, Final residual = 8.620516193422511e-11, No Iterations 1
pEqnloop: 0
diagonal:  Solving for rho, Initial residual = 0, Final residual = 0, No Iterations 0
time step continuity errors : sum local = 1.381817160167862e-16, global = -6.982726576083326e-17, cumulative = -2.34717502311682e-15
DILUPBiCG:  Solving for p, Initial residual = 8.694479082594828e-09, Final residual = 6.150889709677352e-15, No Iterations 1
pEqnloop: 1
diagonal:  Solving for rho, Initial residual = 0, Final residual = 0, No Iterations 0
time step continuity errors : sum local = 1.377107959684062e-16, global = -8.699852183683644e-17, cumulative = -2.434173544953657e-15
DILUPBiCG:  Solving for k, Initial residual = 0.1805909976032154, Final residual = 2.970358877145367e-20, No Iterations 2
ExecutionTime = 21.99 s  ClockTime = 31 s

Courant Number mean: 1.777920721967075e-10 max: 8.961976116517033e-05
deltaT = 5.159780351999998e-09
Time = 2.49587e-08

PIMPLE: iteration 1
diagonal:  Solving for rho, Initial residual = 0, Final residual = 0, No Iterations 0
DILUPBiCG:  Solving for Ux, Initial residual = 0.1997579945751423, Final residual = 4.803964409681964e-20, No Iterations 2
DILUPBiCG:  Solving for Uy, Initial residual = 0.1997579944960256, Final residual = 1.158780922448595e-20, No Iterations 2
DILUPBiCG:  Solving for Uz, Initial residual = 0.06113782169744703, Final residual = 1.554122575826693e-20, No Iterations 2
DILUPBiCG:  Solving for e, Initial residual = 0.06111597782294291, Final residual = 5.59642259833722e-20, No Iterations 2
DILUPBiCG:  Solving for p, Initial residual = 0.06113200367165986, Final residual = 1.171802422539557e-10, No Iterations 1
pEqnloop: 0
diagonal:  Solving for rho, Initial residual = 0, Final residual = 0, No Iterations 0
time step continuity errors : sum local = 2.826771149412679e-16, global = -2.785461758449099e-16, cumulative = -2.712719720798567e-15
DILUPBiCG:  Solving for p, Initial residual = 5.894872863823577e-09, Final residual = 4.579167452930671e-15, No Iterations 1
pEqnloop: 1
diagonal:  Solving for rho, Initial residual = 0, Final residual = 0, No Iterations 0
time step continuity errors : sum local = 2.811243135270254e-16, global = -2.769693827598329e-16, cumulative = -2.9896891035584e-15
DILUPBiCG:  Solving for k, Initial residual = 0.1635155365047397, Final residual = 4.485174353626984e-20, No Iterations 2
ExecutionTime = 25.89 s  ClockTime = 36 s

Courant Number mean: 2.133554705003822e-10 max: 0.0001075334397309669
deltaT = 6.191736422399998e-09
Time = 3.11504e-08

PIMPLE: iteration 1
diagonal:  Solving for rho, Initial residual = 0, Final residual = 0, No Iterations 0
DILUPBiCG:  Solving for Ux, Initial residual = 0.1925420159593654, Final residual = 7.253218420644334e-20, No Iterations 2
DILUPBiCG:  Solving for Uy, Initial residual = 0.1925420158798621, Final residual = 1.653860632970221e-20, No Iterations 2
DILUPBiCG:  Solving for Uz, Initial residual = 0.05836292826115815, Final residual = 2.461288168641424e-20, No Iterations 2
DILUPBiCG:  Solving for e, Initial residual = 0.0583368126839189, Final residual = 8.672738545276627e-20, No Iterations 2
DILUPBiCG:  Solving for p, Initial residual = 0.05835595348973013, Final residual = 1.612823952237285e-10, No Iterations 1
pEqnloop: 0
diagonal:  Solving for rho, Initial residual = 0, Final residual = 0, No Iterations 0
time step continuity errors : sum local = 5.15235025627272e-16, global = -5.071971712767059e-16, cumulative = -3.496886274835106e-15
DILUPBiCG:  Solving for p, Initial residual = 3.901629716747293e-09, Final residual = 3.562088189089538e-15, No Iterations 1
pEqnloop: 1
diagonal:  Solving for rho, Initial residual = 0, Final residual = 0, No Iterations 0
time step continuity errors : sum local = 5.241351150770378e-16, global = -5.214196376801689e-16, cumulative = -4.018305912515275e-15
DILUPBiCG:  Solving for k, Initial residual = 0.1508058226572495, Final residual = 7.086252828562235e-20, No Iterations 2
ExecutionTime = 38.93 s  ClockTime = 50 s

Courant Number mean: 2.560338970663114e-10 max: 0.0001290253889150596
deltaT = 7.430083706879997e-09
Time = 3.85805e-08

PIMPLE: iteration 1
diagonal:  Solving for rho, Initial residual = 0, Final residual = 0, No Iterations 0
DILUPBiCG:  Solving for Ux, Initial residual = 0.186853821483883, Final residual = 1.121127249783905e-19, No Iterations 2
DILUPBiCG:  Solving for Uy, Initial residual = 0.1868538214198267, Final residual = 2.922436547832986e-20, No Iterations 2
DILUPBiCG:  Solving for Uz, Initial residual = 0.05623297147346143, Final residual = 4.009334370975008e-20, No Iterations 2
DILUPBiCG:  Solving for e, Initial residual = 0.05620172153645297, Final residual = 1.385873937805248e-19, No Iterations 2
DILUPBiCG:  Solving for p, Initial residual = 0.0562246379020168, Final residual = 2.241098988470807e-10, No Iterations 1
pEqnloop: 0
diagonal:  Solving for rho, Initial residual = 0, Final residual = 0, No Iterations 0
time step continuity errors : sum local = 2.454921345314995e-16, global = 2.175909816929422e-16, cumulative = -3.800714930822332e-15
DILUPBiCG:  Solving for p, Initial residual = 4.962527186153873e-09, Final residual = 5.237522471188427e-15, No Iterations 1
pEqnloop: 1
diagonal:  Solving for rho, Initial residual = 0, Final residual = 0, No Iterations 0
time step continuity errors : sum local = 2.008531579730943e-16, global = 1.64199721728669e-16, cumulative = -3.636515209093664e-15
DILUPBiCG:  Solving for k, Initial residual = 0.1411037708905667, Final residual = 1.16855845582159e-19, No Iterations 2
ExecutionTime = 41.3 s  ClockTime = 53 s

Courant Number mean: 3.072515049199808e-10 max: 0.0001548093385833502
deltaT = 8.916100448255996e-09
Time = 4.74966e-08

PIMPLE: iteration 1
diagonal:  Solving for rho, Initial residual = 0, Final residual = 0, No Iterations 0
DILUPBiCG:  Solving for Ux, Initial residual = 0.1823252195204246, Final residual = 1.774182460628281e-19, No Iterations 2
DILUPBiCG:  Solving for Uy, Initial residual = 0.1823252194496975, Final residual = 5.562424335880013e-20, No Iterations 2
DILUPBiCG:  Solving for Uz, Initial residual = 0.05456992971926247, Final residual = 6.69981118521857e-20, No Iterations 2
DILUPBiCG:  Solving for e, Initial residual = 0.05453252170066594, Final residual = 2.282693924817434e-19, No Iterations 2
DILUPBiCG:  Solving for p, Initial residual = 0.05455995611271919, Final residual = 3.137469923631943e-10, No Iterations 1
pEqnloop: 0
diagonal:  Solving for rho, Initial residual = 0, Final residual = 0, No Iterations 0
time step continuity errors : sum local = 1.467959327186369e-16, global = -6.81437933846215e-17, cumulative = -3.704659002478285e-15
DILUPBiCG:  Solving for p, Initial residual = 4.566803476434544e-09, Final residual = 5.665655108865225e-15, No Iterations 1
pEqnloop: 1
diagonal:  Solving for rho, Initial residual = 0, Final residual = 0, No Iterations 0
time step continuity errors : sum local = 1.539553543594423e-16, global = -1.097516326861235e-16, cumulative = -3.814410635164409e-15
DILUPBiCG:  Solving for k, Initial residual = 0.1335467959425949, Final residual = 2.007564849021877e-19, No Iterations 2
ExecutionTime = 43.82 s  ClockTime = 57 s

Courant Number mean: 3.687178649866197e-10 max: 0.0001857409471672458
deltaT = 1.069932053790719e-08
Time = 5.81959e-08

PIMPLE: iteration 1
diagonal:  Solving for rho, Initial residual = 0, Final residual = 0, No Iterations 0
DILUPBiCG:  Solving for Ux, Initial residual = 0.1786887645538333, Final residual = 2.873894310022666e-19, No Iterations 2
DILUPBiCG:  Solving for Uy, Initial residual = 0.1786887644995114, Final residual = 1.138206703109973e-19, No Iterations 2
DILUPBiCG:  Solving for Uz, Initial residual = 0.05325359145773416, Final residual = 1.145378053972039e-19, No Iterations 2
DILUPBiCG:  Solving for e, Initial residual = 0.05320880489852468, Final residual = 3.875448311338475e-19, No Iterations 2
DILUPBiCG:  Solving for p, Initial residual = 0.05324165611447797, Final residual = 4.418680439098135e-10, No Iterations 1
pEqnloop: 0
diagonal:  Solving for rho, Initial residual = 0, Final residual = 0, No Iterations 0
time step continuity errors : sum local = 1.617853998998844e-16, global = -8.758219777200595e-17, cumulative = -3.901992832936415e-15
DILUPBiCG:  Solving for p, Initial residual = 3.139559419628963e-09, Final residual = 4.618961447859611e-15, No Iterations 1
pEqnloop: 1
diagonal:  Solving for rho, Initial residual = 0, Final residual = 0, No Iterations 0
time step continuity errors : sum local = 1.537013788886499e-16, global = -1.240816864261561e-16, cumulative = -4.026074519362572e-15
DILUPBiCG:  Solving for k, Initial residual = 0.1275639042352795, Final residual = 3.586966960149184e-19, No Iterations 2
ExecutionTime = 46.18 s  ClockTime = 60 s

Courant Number mean: 4.424853672489527e-10 max: 0.0002228458487620227
deltaT = 1.283918464548863e-08
Time = 7.10351e-08

PIMPLE: iteration 1
diagonal:  Solving for rho, Initial residual = 0, Final residual = 0, No Iterations 0
DILUPBiCG:  Solving for Ux, Initial residual = 0.1757467245514024, Final residual = 4.760859460366911e-19, No Iterations 2
DILUPBiCG:  Solving for Uy, Initial residual = 0.1757467245172709, Final residual = 2.486346326772519e-19, No Iterations 2
DILUPBiCG:  Solving for Uz, Initial residual = 0.0521998172504485, Final residual = 1.996943479360695e-19, No Iterations 2
DILUPBiCG:  Solving for e, Initial residual = 0.05214614931775083, Final residual = 6.782302989547109e-19, No Iterations 2
DILUPBiCG:  Solving for p, Initial residual = 0.05218555343010049, Final residual = 6.253492031798496e-10, No Iterations 1
pEqnloop: 0
diagonal:  Solving for rho, Initial residual = 0, Final residual = 0, No Iterations 0
time step continuity errors : sum local = 4.586868024719005e-16, global = -4.113471222168698e-16, cumulative = -4.437421641579441e-15
DILUPBiCG:  Solving for p, Initial residual = 2.578271567574462e-09, Final residual = 4.527376402750388e-15, No Iterations 1
pEqnloop: 1
diagonal:  Solving for rho, Initial residual = 0, Final residual = 0, No Iterations 0
time step continuity errors : sum local = 4.288300706929567e-16, global = -4.287832359512262e-16, cumulative = -4.866204877530667e-15
DILUPBiCG:  Solving for k, Initial residual = 0.1227636793079123, Final residual = 6.653034212125734e-19, No Iterations 2
ExecutionTime = 48.54 s  ClockTime = 63 s

Courant Number mean: 5.310182840453328e-10 max: 0.0002673531757326265
deltaT = 1.540702157458636e-08
Time = 8.64421e-08

PIMPLE: iteration 1
diagonal:  Solving for rho, Initial residual = 0, Final residual = 0, No Iterations 0
DILUPBiCG:  Solving for Ux, Initial residual = 0.1733503985490703, Final residual = 8.059331391420625e-19, No Iterations 2
DILUPBiCG:  Solving for Uy, Initial residual = 0.1733503985499145, Final residual = 5.869240749871898e-19, No Iterations 2
DILUPBiCG:  Solving for Uz, Initial residual = 0.0513479318730376, Final residual = 3.536823438367706e-19, No Iterations 2
DILUPBiCG:  Solving for e, Initial residual = 0.05128367482396346, Final residual = 1.223461719170441e-18, No Iterations 2
DILUPBiCG:  Solving for p, Initial residual = 0.05133091626859609, Final residual = 8.886177878506635e-10, No Iterations 1
pEqnloop: 0
diagonal:  Solving for rho, Initial residual = 0, Final residual = 0, No Iterations 0
time step continuity errors : sum local = 2.821548580808661e-16, global = 2.67902973523901e-16, cumulative = -4.598301904006767e-15
DILUPBiCG:  Solving for p, Initial residual = 2.803707228454004e-09, Final residual = 5.89066695357741e-15, No Iterations 1
pEqnloop: 1
diagonal:  Solving for rho, Initial residual = 0, Final residual = 0, No Iterations 0
time step continuity errors : sum local = 2.428493930139853e-16, global = 2.34970291597075e-16, cumulative = -4.363331612409692e-15
DILUPBiCG:  Solving for k, Initial residual = 0.1188696863738394, Final residual = 1.278267108810141e-18, No Iterations 2
ExecutionTime = 50.7 s  ClockTime = 66 s

Courant Number mean: 6.372759377240493e-10 max: 0.00032073560372213
deltaT = 1.848842588950363e-08
Time = 1.04931e-07

PIMPLE: iteration 1
diagonal:  Solving for rho, Initial residual = 0, Final residual = 0, No Iterations 0
DILUPBiCG:  Solving for Ux, Initial residual = 0.1713861774667317, Final residual = 1.395047154372403e-18, No Iterations 2
DILUPBiCG:  Solving for Uy, Initial residual = 0.1713861774785555, Final residual = 1.495983863406964e-18, No Iterations 2
DILUPBiCG:  Solving for Uz, Initial residual = 0.05065305861561566, Final residual = 6.330680727444827e-19, No Iterations 2
DILUPBiCG:  Solving for e, Initial residual = 0.05057613468302802, Final residual = 2.274152511852945e-18, No Iterations 2
DILUPBiCG:  Solving for p, Initial residual = 0.05063278095962108, Final residual = 1.267092408912599e-09, No Iterations 1
pEqnloop: 0
diagonal:  Solving for rho, Initial residual = 0, Final residual = 0, No Iterations 0
time step continuity errors : sum local = 3.581872925256746e-16, global = 3.560212091675177e-16, cumulative = -4.007310403242174e-15
DILUPBiCG:  Solving for p, Initial residual = 2.963673024838791e-09, Final residual = 7.514815374478168e-15, No Iterations 1
pEqnloop: 1
diagonal:  Solving for rho, Initial residual = 0, Final residual = 0, No Iterations 0
time step continuity errors : sum local = 2.808317937799312e-16, global = 2.767853236755385e-16, cumulative = -3.730525079566636e-15
DILUPBiCG:  Solving for k, Initial residual = 0.1156816090481981, Final residual = 2.537886970989006e-18, No Iterations 2
ExecutionTime = 53.09 s  ClockTime = 70 s

Courant Number mean: 7.648129722810315e-10 max: 0.00038475716161845
deltaT = 2.218611106740435e-08
Time = 1.27117e-07

PIMPLE: iteration 1
diagonal:  Solving for rho, Initial residual = 0, Final residual = 0, No Iterations 0
DILUPBiCG:  Solving for Ux, Initial residual = 0.1697659847600852, Final residual = 2.438346679387201e-18, No Iterations 2
DILUPBiCG:  Solving for Uy, Initial residual = 0.1697659847712339, Final residual = 3.931241085280899e-18, No Iterations 2
DILUPBiCG:  Solving for Uz, Initial residual = 0.05008126763558517, Final residual = 1.136967921524876e-18, No Iterations 2
DILUPBiCG:  Solving for e, Initial residual = 0.04998919229682752, Final residual = 4.352777257588062e-18, No Iterations 2
DILUPBiCG:  Solving for p, Initial residual = 0.05005712931036958, Final residual = 1.812224062863551e-09, No Iterations 1
pEqnloop: 0
diagonal:  Solving for rho, Initial residual = 0, Final residual = 0, No Iterations 0
time step continuity errors : sum local = 3.68691811036452e-16, global = -1.056626402345096e-16, cumulative = -3.836187719801146e-15
DILUPBiCG:  Solving for p, Initial residual = 3.2324260569248e-09, Final residual = 9.982851054814724e-15, No Iterations 1
pEqnloop: 1
diagonal:  Solving for rho, Initial residual = 0, Final residual = 0, No Iterations 0
time step continuity errors : sum local = 2.492428325310185e-16, global = -2.308804141869889e-16, cumulative = -4.067068133988135e-15
DILUPBiCG:  Solving for k, Initial residual = 0.113051022453271, Final residual = 5.192719976777609e-18, No Iterations 2
ExecutionTime = 57.48 s  ClockTime = 76 s

Courant Number mean: 9.179004421098695e-10 max: 0.0004615302830703824
deltaT = 2.662333328088522e-08
Time = 1.5374e-07

PIMPLE: iteration 1
diagonal:  Solving for rho, Initial residual = 0, Final residual = 0, No Iterations 0
DILUPBiCG:  Solving for Ux, Initial residual = 0.1684205943951505, Final residual = 4.264582515115273e-18, No Iterations 2
DILUPBiCG:  Solving for Uy, Initial residual = 0.1684205944041147, Final residual = 1.083852614751958e-17, No Iterations 2
DILUPBiCG:  Solving for Uz, Initial residual = 0.0496063957713527, Final residual = 2.026887395315099e-18, No Iterations 2
DILUPBiCG:  Solving for e, Initial residual = 0.04949620276290437, Final residual = 8.570016514459875e-18, No Iterations 2
DILUPBiCG:  Solving for p, Initial residual = 0.04957770384969215, Final residual = 2.598915838254975e-09, No Iterations 1
pEqnloop: 0
diagonal:  Solving for rho, Initial residual = 0, Final residual = 0, No Iterations 0
time step continuity errors : sum local = 8.06651909985562e-16, global = -3.785490406606708e-16, cumulative = -4.445617174648806e-15
DILUPBiCG:  Solving for p, Initial residual = 4.082319702200111e-09, Final residual = 1.539356473897872e-14, No Iterations 1
pEqnloop: 1
diagonal:  Solving for rho, Initial residual = 0, Final residual = 0, No Iterations 0
time step continuity errors : sum local = 5.880627854487541e-16, global = -5.851686070528124e-16, cumulative = -5.030785781701618e-15
DILUPBiCG:  Solving for k, Initial residual = 0.1108658386650876, Final residual = 1.091790449545187e-17, No Iterations 2
ExecutionTime = 60.55 s  ClockTime = 81 s

Courant Number mean: 1.101672360564608e-09 max: 0.0005535838593398187
deltaT = 3.194799993706226e-08
Time = 1.85688e-07

PIMPLE: iteration 1
diagonal:  Solving for rho, Initial residual = 0, Final residual = 0, No Iterations 0
DILUPBiCG:  Solving for Ux, Initial residual = 0.167294889193793, Final residual = 7.35266939625942e-18, No Iterations 2
DILUPBiCG:  Solving for Uy, Initial residual = 0.1672948891986725, Final residual = 3.27875163125568e-17, No Iterations 2
DILUPBiCG:  Solving for Uz, Initial residual = 0.04920787829674522, Final residual = 3.522198513458403e-18, No Iterations 2
DILUPBiCG:  Solving for e, Initial residual = 0.04907605872824279, Final residual = 1.733068027638526e-17, No Iterations 2
DILUPBiCG:  Solving for p, Initial residual = 0.04917384497306834, Final residual = 3.736478809724669e-09, No Iterations 1
pEqnloop: 0
diagonal:  Solving for rho, Initial residual = 0, Final residual = 0, No Iterations 0
time step continuity errors : sum local = 4.986236821458478e-16, global = 3.382778545052411e-16, cumulative = -4.692507927196376e-15
DILUPBiCG:  Solving for p, Initial residual = 4.729734236363792e-09, Final residual = 2.206909152501561e-14, No Iterations 1
pEqnloop: 1
diagonal:  Solving for rho, Initial residual = 0, Final residual = 0, No Iterations 0
time step continuity errors : sum local = 1.157640472048859e-16, global = -4.75378660068547e-17, cumulative = -4.740045793203231e-15
DILUPBiCG:  Solving for k, Initial residual = 0.1090398957003123, Final residual = 2.351973650132869e-17, No Iterations 2
ExecutionTime = 63.33 s  ClockTime = 84 s

Courant Number mean: 1.322303588057895e-09 max: 0.0006639444024474681
deltaT = 3.833759992447472e-08
Time = 2.24026e-07

PIMPLE: iteration 1
diagonal:  Solving for rho, Initial residual = 0, Final residual = 0, No Iterations 0
DILUPBiCG:  Solving for Ux, Initial residual = 0.1663444151323716, Final residual = 1.216713948341324e-17, No Iterations 2
DILUPBiCG:  Solving for Uy, Initial residual = 0.1663444151334533, Final residual = 1.31241866928605e-16, No Iterations 2
DILUPBiCG:  Solving for Uz, Initial residual = 0.04886928998851352, Final residual = 5.760998285515926e-18, No Iterations 2
DILUPBiCG:  Solving for e, Initial residual = 0.04871167225080256, Final residual = 3.5933041736686e-17, No Iterations 2
DILUPBiCG:  Solving for p, Initial residual = 0.04882900392332462, Final residual = 5.384879096269734e-09, No Iterations 1
pEqnloop: 0
diagonal:  Solving for rho, Initial residual = 0, Final residual = 0, No Iterations 0
time step continuity errors : sum local = 7.780943925871294e-16, global = 7.417612990329966e-16, cumulative = -3.998284494170235e-15
DILUPBiCG:  Solving for p, Initial residual = 6.320680898352328e-09, Final residual = 3.652338569519286e-14, No Iterations 1
pEqnloop: 1
diagonal:  Solving for rho, Initial residual = 0, Final residual = 0, No Iterations 0
time step continuity errors : sum local = 1.347042341537468e-16, global = 7.629284982147047e-17, cumulative = -3.921991644348765e-15
DILUPBiCG:  Solving for k, Initial residual = 0.1075059387719409, Final residual = 5.176386722951146e-17, No Iterations 2
ExecutionTime = 65.81999999999999 s  ClockTime = 87 s

Courant Number mean: 1.587226623908929e-09 max: 0.0007962328698137065
deltaT = 4.600511990936966e-08
Time = 2.70031e-07

PIMPLE: iteration 1
diagonal:  Solving for rho, Initial residual = 0, Final residual = 0, No Iterations 0
DILUPBiCG:  Solving for Ux, Initial residual = 0.1655328481924891, Final residual = 1.830103726523768e-17, No Iterations 2
DILUPBiCG:  Solving for Uy, Initial residual = 0.1655328481924983, Final residual = 1.158340914748694e-15, No Iterations 2
DILUPBiCG:  Solving for Uz, Initial residual = 0.04857727214033709, Final residual = 8.128589796731049e-18, No Iterations 2
DILUPBiCG:  Solving for e, Initial residual = 0.04838891058563901, Final residual = 7.623258478710646e-17, No Iterations 2
DILUPBiCG:  Solving for p, Initial residual = 0.04852970958753211, Final residual = 7.778948197613959e-09, No Iterations 1
pEqnloop: 0
diagonal:  Solving for rho, Initial residual = 0, Final residual = 0, No Iterations 0
time step continuity errors : sum local = 1.375847999302704e-15, global = 8.640634888549432e-16, cumulative = -3.057928155493821e-15
DILUPBiCG:  Solving for p, Initial residual = 8.989524992570928e-09, Final residual = 6.443102931353833e-14, No Iterations 1
pEqnloop: 1
diagonal:  Solving for rho, Initial residual = 0, Final residual = 0, No Iterations 0
time step continuity errors : sum local = 2.589004086764026e-16, global = -2.502748113027204e-16, cumulative = -3.308202966796542e-15
DILUPBiCG:  Solving for k, Initial residual = 0.106210829858529, Final residual = 1.160751362955889e-16, No Iterations 2
ExecutionTime = 68.3 s  ClockTime = 92 s

Courant Number mean: 1.905397217517927e-09 max: 0.0009547802819188071
deltaT = 5.520614389124359e-08
Time = 3.25237e-07

PIMPLE: iteration 1
diagonal:  Solving for rho, Initial residual = 0, Final residual = 0, No Iterations 0
DILUPBiCG:  Solving for Ux, Initial residual = 0.1648300894146222, Final residual = 2.317380551294063e-17, No Iterations 2
DILUPBiCG:  Solving for Uy, Initial residual = 0.1648300894128833, Final residual = 1.370620059174577e-16, No Iterations 2
DILUPBiCG:  Solving for Uz, Initial residual = 0.04832074018462928, Final residual = 6.73588499295575e-18, No Iterations 2
DILUPBiCG:  Solving for e, Initial residual = 0.04809575556048991, Final residual = 1.651262351453403e-16, No Iterations 2
DILUPBiCG:  Solving for p, Initial residual = 0.04826475273720717, Final residual = 1.126463449669382e-08, No Iterations 1
pEqnloop: 0
diagonal:  Solving for rho, Initial residual = 0, Final residual = 0, No Iterations 0
time step continuity errors : sum local = 2.163223088502278e-15, global = 2.126412306681582e-15, cumulative = -1.18179066011496e-15
DILUPBiCG:  Solving for p, Initial residual = 1.301001919961794e-08, Final residual = 1.162615491502768e-13, No Iterations 1
pEqnloop: 1
diagonal:  Solving for rho, Initial residual = 0, Final residual = 0, No Iterations 0
time step continuity errors : sum local = 2.679166635279016e-16, global = 2.142033573845856e-16, cumulative = -9.675873027303741e-16
DILUPBiCG:  Solving for k, Initial residual = 0.1051120051465823, Final residual = 2.645318131592821e-16, No Iterations 2
ExecutionTime = 72.58 s  ClockTime = 97 s

Courant Number mean: 2.287622078245586e-09 max: 0.00114476605899438
deltaT = 6.62473726694923e-08
Time = 3.91484e-07

PIMPLE: iteration 1
diagonal:  Solving for rho, Initial residual = 0, Final residual = 0, No Iterations 0
DILUPBiCG:  Solving for Ux, Initial residual = 0.1642108139489107, Final residual = 4.937431225169114e-17, No Iterations 2
DILUPBiCG:  Solving for Uy, Initial residual = 0.1642108139464103, Final residual = 2.096845947561011e-16, No Iterations 2
DILUPBiCG:  Solving for Uz, Initial residual = 0.04809030569414878, Final residual = 1.675888677629215e-17, No Iterations 2
DILUPBiCG:  Solving for e, Initial residual = 0.04782179772064135, Final residual = 3.643815867834708e-16, No Iterations 2
DILUPBiCG:  Solving for p, Initial residual = 0.04802468058461246, Final residual = 1.635361892903483e-08, No Iterations 1
pEqnloop: 0
diagonal:  Solving for rho, Initial residual = 0, Final residual = 0, No Iterations 0
time step continuity errors : sum local = 3.62511479018546e-15, global = 3.60908870616033e-15, cumulative = 2.641501403429956e-15
DILUPBiCG:  Solving for p, Initial residual = 1.920290500823647e-08, Final residual = 2.147783538460484e-13, No Iterations 1
pEqnloop: 1
diagonal:  Solving for rho, Initial residual = 0, Final residual = 0, No Iterations 0
time step continuity errors : sum local = 2.373615882898085e-16, global = 2.250948008969846e-16, cumulative = 2.866596204326941e-15
DILUPBiCG:  Solving for k, Initial residual = 0.104175009900324, Final residual = 6.113036170364227e-16, No Iterations 2
ExecutionTime = 76.55 s  ClockTime = 102 s

Courant Number mean: 2.746966890366443e-09 max: 0.001372384141132108
deltaT = 7.949684720339076e-08
Time = 4.70981e-07

PIMPLE: iteration 1
diagonal:  Solving for rho, Initial residual = 0, Final residual = 0, No Iterations 0
DILUPBiCG:  Solving for Ux, Initial residual = 0.1636533488368993, Final residual = 2.268742804638783e-16, No Iterations 2
DILUPBiCG:  Solving for Uy, Initial residual = 0.1636533488336043, Final residual = 1.216374335431774e-15, No Iterations 2
DILUPBiCG:  Solving for Uz, Initial residual = 0.04787783833720612, Final residual = 1.148258349093327e-16, No Iterations 2
DILUPBiCG:  Solving for e, Initial residual = 0.04755770309059679, Final residual = 8.173465638525177e-16, No Iterations 2
DILUPBiCG:  Solving for p, Initial residual = 0.04780129779735259, Final residual = 2.380603383514219e-08, No Iterations 1
pEqnloop: 0
diagonal:  Solving for rho, Initial residual = 0, Final residual = 0, No Iterations 0
time step continuity errors : sum local = 6.113043480965711e-15, global = 6.083146848053758e-15, cumulative = 8.949743052380698e-15
DILUPBiCG:  Solving for p, Initial residual = 2.883062015676627e-08, Final residual = 4.054767879226375e-13, No Iterations 1
pEqnloop: 1
diagonal:  Solving for rho, Initial residual = 0, Final residual = 0, No Iterations 0
time step continuity errors : sum local = 1.471526439784409e-16, global = 1.238490321428031e-16, cumulative = 9.073592084523502e-15
DILUPBiCG:  Solving for k, Initial residual = 0.1033716719611171, Final residual = 1.429558706965485e-15, No Iterations 2
ExecutionTime = 78.63 s  ClockTime = 105 s

Courant Number mean: 3.299270210812963e-09 max: 0.001645043660236679
deltaT = 9.53962166440689e-08
Time = 5.66377e-07

PIMPLE: iteration 1
diagonal:  Solving for rho, Initial residual = 0, Final residual = 0, No Iterations 0
DILUPBiCG:  Solving for Ux, Initial residual = 0.1631388013754231, Final residual = 8.863491307577156e-16, No Iterations 2
DILUPBiCG:  Solving for Uy, Initial residual = 0.1631388013720848, Final residual = 4.494956822233774e-15, No Iterations 2
DILUPBiCG:  Solving for Uz, Initial residual = 0.04767612719622161, Final residual = 4.7193158950431e-16, No Iterations 2
DILUPBiCG:  Solving for e, Initial residual = 0.04729490952980092, Final residual = 1.859707280178022e-15, No Iterations 2
DILUPBiCG:  Solving for p, Initial residual = 0.047587392999019, Final residual = 3.475661620116598e-08, No Iterations 1
pEqnloop: 0
diagonal:  Solving for rho, Initial residual = 0, Final residual = 0, No Iterations 0
time step continuity errors : sum local = 1.092243768105594e-14, global = 1.09095646324325e-14, cumulative = 1.9983156716956e-14
DILUPBiCG:  Solving for p, Initial residual = 4.352296067378999e-08, Final residual = 7.744016349056816e-13, No Iterations 1
pEqnloop: 1
diagonal:  Solving for rho, Initial residual = 0, Final residual = 0, No Iterations 0
time step continuity errors : sum local = 5.055016222493867e-16, global = 4.97072857574637e-16, cumulative = 2.048022957453064e-14
DILUPBiCG:  Solving for k, Initial residual = 0.1026787464362989, Final residual = 3.377136206003491e-15, No Iterations 2
ExecutionTime = 83.22 s  ClockTime = 110 s

Courant Number mean: 3.963800060932225e-09 max: 0.001971613580785789
deltaT = 1.144754599728827e-07
Time = 6.80853e-07

PIMPLE: iteration 1
diagonal:  Solving for rho, Initial residual = 0, Final residual = 0, No Iterations 0
DILUPBiCG:  Solving for Ux, Initial residual = 0.1626503789397851, Final residual = 3.078990054185434e-15, No Iterations 2
DILUPBiCG:  Solving for Uy, Initial residual = 0.1626503789369462, Final residual = 1.488126638192787e-14, No Iterations 2
DILUPBiCG:  Solving for Uz, Initial residual = 0.04747862115142745, Final residual = 1.667195680659524e-15, No Iterations 2
DILUPBiCG:  Solving for e, Initial residual = 0.04702535171468749, Final residual = 4.283541334879064e-15, No Iterations 2
DILUPBiCG:  Solving for p, Initial residual = 0.04737651152481611, Final residual = 5.090828926134495e-08, No Iterations 1
pEqnloop: 0
diagonal:  Solving for rho, Initial residual = 0, Final residual = 0, No Iterations 0
time step continuity errors : sum local = 1.846452606060233e-14, global = 1.813106857657213e-14, cumulative = 3.861129815110276e-14
DILUPBiCG:  Solving for p, Initial residual = 6.644301397019795e-08, Final residual = 3.633246731587916e-18, No Iterations 2
pEqnloop: 1
diagonal:  Solving for rho, Initial residual = 0, Final residual = 0, No Iterations 0
time step continuity errors : sum local = 1.77490400570788e-16, global = -1.333045782711514e-16, cumulative = 3.847799357283161e-14
DILUPBiCG:  Solving for k, Initial residual = 0.1020768882285301, Final residual = 8.047038749420789e-15, No Iterations 2
ExecutionTime = 86.41 s  ClockTime = 115 s

Courant Number mean: 4.764107406323443e-09 max: 0.002362724964296397
deltaT = 1.373705519674592e-07
Time = 8.18223e-07

PIMPLE: iteration 1
diagonal:  Solving for rho, Initial residual = 0, Final residual = 0, No Iterations 0
DILUPBiCG:  Solving for Ux, Initial residual = 0.1621728689852119, Final residual = 1.00642006329905e-14, No Iterations 2
DILUPBiCG:  Solving for Uy, Initial residual = 0.1621728689822294, Final residual = 4.710218819039455e-14, No Iterations 2
DILUPBiCG:  Solving for Uz, Initial residual = 0.04727922534927421, Final residual = 5.493429213522622e-15, No Iterations 2
DILUPBiCG:  Solving for e, Initial residual = 0.04674126749762315, Final residual = 9.969563596204398e-15, No Iterations 2
DILUPBiCG:  Solving for p, Initial residual = 0.04716279867102637, Final residual = 7.483113691928005e-08, No Iterations 1
pEqnloop: 0
diagonal:  Solving for rho, Initial residual = 0, Final residual = 0, No Iterations 0
time step continuity errors : sum local = 3.247618761253887e-14, global = 3.24340738060048e-14, cumulative = 7.091206737883641e-14
DILUPBiCG:  Solving for p, Initial residual = 1.022087712122374e-07, Final residual = 1.269385557345725e-17, No Iterations 2
pEqnloop: 1
diagonal:  Solving for rho, Initial residual = 0, Final residual = 0, No Iterations 0
time step continuity errors : sum local = 2.669347698094023e-16, global = 2.542436221413834e-16, cumulative = 7.11663110009778e-14
DILUPBiCG:  Solving for k, Initial residual = 0.1015499011528072, Final residual = 1.931519338736168e-14, No Iterations 2
ExecutionTime = 89.68000000000001 s  ClockTime = 119 s

Courant Number mean: 5.729157945645038e-09 max: 0.002831151431704673
deltaT = 1.64844662360951e-07
Time = 9.83068e-07

PIMPLE: iteration 1
diagonal:  Solving for rho, Initial residual = 0, Final residual = 0, No Iterations 0
DILUPBiCG:  Solving for Ux, Initial residual = 0.1616922641696874, Final residual = 3.17666641225917e-14, No Iterations 2
DILUPBiCG:  Solving for Uy, Initial residual = 0.1616922641671868, Final residual = 1.457319982058582e-13, No Iterations 2
DILUPBiCG:  Solving for Uz, Initial residual = 0.04707219310819936, Final residual = 1.742288527820299e-14, No Iterations 2
DILUPBiCG:  Solving for e, Initial residual = 0.04643511541215501, Final residual = 2.340603110962994e-14, No Iterations 2
DILUPBiCG:  Solving for p, Initial residual = 0.04694093754945181, Final residual = 1.104270200382426e-07, No Iterations 1
pEqnloop: 0
diagonal:  Solving for rho, Initial residual = 0, Final residual = 0, No Iterations 0
time step continuity errors : sum local = 5.716042764581855e-14, global = 5.708043202597043e-14, cumulative = 1.282467430269482e-13
DILUPBiCG:  Solving for p, Initial residual = 1.58071687347161e-07, Final residual = 4.481310226746738e-17, No Iterations 2
pEqnloop: 1
diagonal:  Solving for rho, Initial residual = 0, Final residual = 0, No Iterations 0
time step continuity errors : sum local = 2.023346659375225e-16, global = 1.934601628322847e-16, cumulative = 1.284402031897805e-13
DILUPBiCG:  Solving for k, Initial residual = 0.1010841810071383, Final residual = 4.665061583688959e-14, No Iterations 2
ExecutionTime = 91.94 s  ClockTime = 122 s

Courant Number mean: 6.894866665627502e-09 max: 0.003392299833639988
deltaT = 1.978135948331412e-07
Time = 1.18088e-06

PIMPLE: iteration 1
diagonal:  Solving for rho, Initial residual = 0, Final residual = 0, No Iterations 0
DILUPBiCG:  Solving for Ux, Initial residual = 0.1611955304203305, Final residual = 9.812030398349255e-14, No Iterations 2
DILUPBiCG:  Solving for Uy, Initial residual = 0.1611955304178384, Final residual = 4.450362011055462e-13, No Iterations 2
DILUPBiCG:  Solving for Uz, Initial residual = 0.04685203757424659, Final residual = 5.399519655628315e-14, No Iterations 2
DILUPBiCG:  Solving for e, Initial residual = 0.04609956088759746, Final residual = 5.534672800167432e-14, No Iterations 2
DILUPBiCG:  Solving for p, Initial residual = 0.04670615229083658, Final residual = 1.636555979166463e-07, No Iterations 1
pEqnloop: 0
diagonal:  Solving for rho, Initial residual = 0, Final residual = 0, No Iterations 0
time step continuity errors : sum local = 1.015099198654338e-13, global = 1.002002100612995e-13, cumulative = 2.2864041325108e-13
DILUPBiCG:  Solving for p, Initial residual = 2.455014843179887e-07, Final residual = 1.598739328259905e-16, No Iterations 2
pEqnloop: 1
diagonal:  Solving for rho, Initial residual = 0, Final residual = 0, No Iterations 0
time step continuity errors : sum local = 5.863609386032658e-16, global = -5.840678765725697e-16, cumulative = 2.280563453745074e-13
DILUPBiCG:  Solving for k, Initial residual = 0.1006682619337438, Final residual = 1.132677122542302e-13, No Iterations 2
ExecutionTime = 93.89 s  ClockTime = 125 s

Courant Number mean: 8.306228050932797e-09 max: 0.004064862143225866
deltaT = 2.373763137997695e-07
Time = 1.41826e-06

PIMPLE: iteration 1
diagonal:  Solving for rho, Initial residual = 0, Final residual = 0, No Iterations 0
DILUPBiCG:  Solving for Ux, Initial residual = 0.1606705339349701, Final residual = 2.987374683907741e-13, No Iterations 2
DILUPBiCG:  Solving for Uy, Initial residual = 0.1606705339325342, Final residual = 1.743366541731429e-21, No Iterations 3
DILUPBiCG:  Solving for Uz, Initial residual = 0.04661356795235096, Final residual = 1.648357157187889e-13, No Iterations 2
DILUPBiCG:  Solving for e, Initial residual = 0.04572760571530154, Final residual = 1.316356452050689e-13, No Iterations 2
DILUPBiCG:  Solving for p, Initial residual = 0.04645430728102057, Final residual = 2.43674000081e-07, No Iterations 1
pEqnloop: 0
diagonal:  Solving for rho, Initial residual = 0, Final residual = 0, No Iterations 0
time step continuity errors : sum local = 1.797847668333519e-13, global = 1.792149003597935e-13, cumulative = 4.072712457343009e-13
DILUPBiCG:  Solving for p, Initial residual = 3.827806535930995e-07, Final residual = 5.772949678755813e-16, No Iterations 2
pEqnloop: 1
diagonal:  Solving for rho, Initial residual = 0, Final residual = 0, No Iterations 0
time step continuity errors : sum local = 1.288255823935788e-16, global = 5.809282969140043e-18, cumulative = 4.072770550172701e-13
DILUPBiCG:  Solving for k, Initial residual = 0.1002924923837735, Final residual = 2.762523156931698e-13, No Iterations 2
ExecutionTime = 96.89 s  ClockTime = 129 s

Courant Number mean: 1.002034394636973e-08 max: 0.004871711166575156
deltaT = 2.848515765597234e-07
Time = 1.70311e-06

PIMPLE: iteration 1
diagonal:  Solving for rho, Initial residual = 0, Final residual = 0, No Iterations 0
DILUPBiCG:  Solving for Ux, Initial residual = 0.1601061568265851, Final residual = 9.001720877682062e-13, No Iterations 2
DILUPBiCG:  Solving for Uy, Initial residual = 0.1601061568233957, Final residual = 1.02947085275625e-20, No Iterations 3
DILUPBiCG:  Solving for Uz, Initial residual = 0.04635203042936885, Final residual = 4.979608205882246e-13, No Iterations 2
DILUPBiCG:  Solving for e, Initial residual = 0.04531285988393015, Final residual = 3.145206842527624e-13, No Iterations 2
DILUPBiCG:  Solving for p, Initial residual = 0.04618212265962716, Final residual = 3.646313260564889e-07, No Iterations 1
pEqnloop: 0
diagonal:  Solving for rho, Initial residual = 0, Final residual = 0, No Iterations 0
time step continuity errors : sum local = 3.212051064075503e-13, global = 3.201070614763948e-13, cumulative = 7.273841164936649e-13
DILUPBiCG:  Solving for p, Initial residual = 5.983417856612155e-07, Final residual = 2.112560534357e-15, No Iterations 2
pEqnloop: 1
diagonal:  Solving for rho, Initial residual = 0, Final residual = 0, No Iterations 0
time step continuity errors : sum local = 1.527014082622721e-16, global = 1.213425876409476e-16, cumulative = 7.275054590813058e-13
DILUPBiCG:  Solving for k, Initial residual = 0.09994885837413833, Final residual = 6.76354954412284e-13, No Iterations 2
ExecutionTime = 99.45 s  ClockTime = 133 s

Courant Number mean: 1.211082482267239e-08 max: 0.005841174881477585
deltaT = 3.41821891871668e-07
Time = 2.04493e-06

PIMPLE: iteration 1
diagonal:  Solving for rho, Initial residual = 0, Final residual = 0, No Iterations 0
DILUPBiCG:  Solving for Ux, Initial residual = 0.1594926457855656, Final residual = 1.321970275336126e-19, No Iterations 3
DILUPBiCG:  Solving for Uy, Initial residual = 0.1594926457805758, Final residual = 7.230002807561336e-20, No Iterations 3
DILUPBiCG:  Solving for Uz, Initial residual = 0.04606335021793365, Final residual = 2.356765229309795e-20, No Iterations 3
DILUPBiCG:  Solving for e, Initial residual = 0.0448500553019297, Final residual = 7.541769749996851e-13, No Iterations 2
DILUPBiCG:  Solving for p, Initial residual = 0.04588749857659727, Final residual = 5.484961059113822e-07, No Iterations 1
pEqnloop: 0
diagonal:  Solving for rho, Initial residual = 0, Final residual = 0, No Iterations 0
time step continuity errors : sum local = 5.764392690971517e-13, global = 5.734022866116765e-13, cumulative = 1.300907745692982e-12
DILUPBiCG:  Solving for p, Initial residual = 9.369004485875769e-07, Final residual = 7.858346633402551e-15, No Iterations 2
pEqnloop: 1
diagonal:  Solving for rho, Initial residual = 0, Final residual = 0, No Iterations 0
time step continuity errors : sum local = 1.906938902691297e-16, global = -1.707721219742021e-16, cumulative = 1.300736973571008e-12
DILUPBiCG:  Solving for k, Initial residual = 0.09963076914268416, Final residual = 3.352141680973748e-20, No Iterations 3
ExecutionTime = 102.89 s  ClockTime = 137 s

Courant Number mean: 1.467431533041869e-08 max: 0.00700890970103537
deltaT = 4.101862702460016e-07
Time = 2.45512e-06

PIMPLE: iteration 1
diagonal:  Solving for rho, Initial residual = 0, Final residual = 0, No Iterations 0
DILUPBiCG:  Solving for Ux, Initial residual = 0.1588222512748411, Final residual = 6.362161255842627e-19, No Iterations 3
DILUPBiCG:  Solving for Uy, Initial residual = 0.1588222512658102, Final residual = 5.423648693150398e-19, No Iterations 3
DILUPBiCG:  Solving for Uz, Initial residual = 0.04574467797072602, Final residual = 1.569769734956229e-19, No Iterations 3
DILUPBiCG:  Solving for e, Initial residual = 0.04433586813816822, Final residual = 7.137723793196205e-20, No Iterations 3
DILUPBiCG:  Solving for p, Initial residual = 0.04556997538108207, Final residual = 8.294994142543987e-07, No Iterations 1
pEqnloop: 0
diagonal:  Solving for rho, Initial residual = 0, Final residual = 0, No Iterations 0
time step continuity errors : sum local = 1.039052648210061e-12, global = 1.031603425008854e-12, cumulative = 2.332340398579862e-12
DILUPBiCG:  Solving for p, Initial residual = 1.467787407682294e-06, Final residual = 2.986944618363739e-14, No Iterations 2
pEqnloop: 1
diagonal:  Solving for rho, Initial residual = 0, Final residual = 0, No Iterations 0
time step continuity errors : sum local = 1.878019035456969e-16, global = -1.677317087346487e-16, cumulative = 2.332172666871127e-12
DILUPBiCG:  Solving for k, Initial residual = 0.09933287191840943, Final residual = 1.850258793270944e-19, No Iterations 3
ExecutionTime = 106.25 s  ClockTime = 141 s

Courant Number mean: 1.784032562039218e-08 max: 0.008420730798768228
deltaT = 4.922235242952019e-07
Time = 2.94734e-06

PIMPLE: iteration 1
diagonal:  Solving for rho, Initial residual = 0, Final residual = 0, No Iterations 0
[...]
DILUPBiCG:  Solving for k, Initial residual = 0.009034379409496491, Final residual = 2.960682866949508e-13, No Iterations 5
ExecutionTime = 1865.38 s  ClockTime = 9577 s

APIO_IO_STEP = 61.15200625699617
Courant Number mean: 4.344766981806408e-06 max: 0.2001645394956558
deltaT = 2.740304988142215e-06
Time = 0.000170553

PIMPLE: iteration 1
diagonal:  Solving for rho, Initial residual = 0, Final residual = 0, No Iterations 0
DILUPBiCG:  Solving for Ux, Initial residual = 0.01634411746525979, Final residual = 1.191431034254309e-13, No Iterations 5
DILUPBiCG:  Solving for Uy, Initial residual = 0.01634383719684488, Final residual = 2.492273729406751e-13, No Iterations 5
DILUPBiCG:  Solving for Uz, Initial residual = 0.008072912583310519, Final residual = 2.250558602419607e-13, No Iterations 5
DILUPBiCG:  Solving for e, Initial residual = 0.01129448892080316, Final residual = 5.946546766820561e-15, No Iterations 5
DILUPBiCG:  Solving for p, Initial residual = 0.01468655260615226, Final residual = 2.460072529399263e-05, No Iterations 1
pEqnloop: 0
diagonal:  Solving for rho, Initial residual = 0, Final residual = 0, No Iterations 0
time step continuity errors : sum local = 2.006113996205379e-09, global = -4.104793768500408e-10, cumulative = -2.009969142839281e-09
DILUPBiCG:  Solving for p, Initial residual = 0.0001173020662490061, Final residual = 8.980995399639175e-13, No Iterations 4
pEqnloop: 1
diagonal:  Solving for rho, Initial residual = 0, Final residual = 0, No Iterations 0
time step continuity errors : sum local = 2.372035117622939e-16, global = -2.989640673274732e-17, cumulative = -2.009969172735688e-09
DILUPBiCG:  Solving for k, Initial residual = 0.009102306050662376, Final residual = 1.469000286935389e-13, No Iterations 5
ExecutionTime = 1877.3 s  ClockTime = 9675 s

APIO_IO_STEP = 58.4430988389995
Courant Number mean: 4.447008673064362e-06 max: 0.1996625214066912
deltaT = 2.744936775150197e-06
Time = 0.000173298

PIMPLE: iteration 1
diagonal:  Solving for rho, Initial residual = 0, Final residual = 0, No Iterations 0
DILUPBiCG:  Solving for Ux, Initial residual = 0.01620184367233373, Final residual = 1.108609530651628e-13, No Iterations 5
DILUPBiCG:  Solving for Uy, Initial residual = 0.01620161519740445, Final residual = 2.444153047316509e-13, No Iterations 5
DILUPBiCG:  Solving for Uz, Initial residual = 0.008009339666244357, Final residual = 2.225969996546379e-13, No Iterations 5
DILUPBiCG:  Solving for e, Initial residual = 0.01123647534944306, Final residual = 6.534578333786913e-15, No Iterations 5
DILUPBiCG:  Solving for p, Initial residual = 0.0146324886153721, Final residual = 2.493009447464739e-05, No Iterations 1
pEqnloop: 0
diagonal:  Solving for rho, Initial residual = 0, Final residual = 0, No Iterations 0
time step continuity errors : sum local = 2.069054222427707e-09, global = -4.354617919221916e-10, cumulative = -2.44543096465788e-09
DILUPBiCG:  Solving for p, Initial residual = 0.0001020514904007695, Final residual = 6.511136332600134e-15, No Iterations 5
pEqnloop: 1
diagonal:  Solving for rho, Initial residual = 0, Final residual = 0, No Iterations 0
time step continuity errors : sum local = 1.658597982396323e-16, global = -4.111639232760079e-17, cumulative = -2.445431005774272e-09
DILUPBiCG:  Solving for k, Initial residual = 0.00915952224862982, Final residual = 4.596913259250512e-15, No Iterations 6
ExecutionTime = 1883.9 s  ClockTime = 9773 s

APIO_IO_STEP = 62.11760074599806
Courant Number mean: 4.562626526430001e-06 max: 0.1995656196284052
deltaT = 2.750911484915393e-06
Time = 0.000176048

PIMPLE: iteration 1
diagonal:  Solving for rho, Initial residual = 0, Final residual = 0, No Iterations 0
DILUPBiCG:  Solving for Ux, Initial residual = 0.0160735853115408, Final residual = 1.036014603481156e-13, No Iterations 5
DILUPBiCG:  Solving for Uy, Initial residual = 0.01607322296167429, Final residual = 2.4048046274201e-13, No Iterations 5
DILUPBiCG:  Solving for Uz, Initial residual = 0.007962986711750985, Final residual = 2.194019625022941e-13, No Iterations 5
DILUPBiCG:  Solving for e, Initial residual = 0.01117234402627719, Final residual = 5.401899319138533e-15, No Iterations 5
DILUPBiCG:  Solving for p, Initial residual = 0.01458054719292379, Final residual = 2.540512760113932e-05, No Iterations 1
pEqnloop: 0
diagonal:  Solving for rho, Initial residual = 0, Final residual = 0, No Iterations 0
time step continuity errors : sum local = 2.145501199263098e-09, global = -5.005041906995913e-10, cumulative = -2.945935196473863e-09
DILUPBiCG:  Solving for p, Initial residual = 0.0001061157593759912, Final residual = 9.928608255706354e-13, No Iterations 4
pEqnloop: 1
diagonal:  Solving for rho, Initial residual = 0, Final residual = 0, No Iterations 0
time step continuity errors : sum local = 2.484657354278593e-16, global = -3.375052567158028e-17, cumulative = -2.945935230224389e-09
DILUPBiCG:  Solving for k, Initial residual = 0.009187376332203697, Final residual = 1.061560646382524e-13, No Iterations 5
ExecutionTime = 1912.13 s  ClockTime = 9880 s

APIO_IO_STEP = 58.4585373230002
Courant Number mean: 4.682339917555532e-06 max: 0.1996185566931017
deltaT = 2.756168094276622e-06
Time = 0.000178805

PIMPLE: iteration 1
diagonal:  Solving for rho, Initial residual = 0, Final residual = 0, No Iterations 0
DILUPBiCG:  Solving for Ux, Initial residual = 0.01592633176265118, Final residual = 9.792837445432111e-14, No Iterations 5
DILUPBiCG:  Solving for Uy, Initial residual = 0.01592572267694084, Final residual = 2.376294261373959e-13, No Iterations 5
DILUPBiCG:  Solving for Uz, Initial residual = 0.007906157358333074, Final residual = 2.110073323706981e-13, No Iterations 5
DILUPBiCG:  Solving for e, Initial residual = 0.01117324135964947, Final residual = 5.587499977557386e-13, No Iterations 4
DILUPBiCG:  Solving for p, Initial residual = 0.01458476502628308, Final residual = 2.4845457527424e-05, No Iterations 1
pEqnloop: 0
diagonal:  Solving for rho, Initial residual = 0, Final residual = 0, No Iterations 0
time step continuity errors : sum local = 2.134651748954956e-09, global = -4.735676400889438e-10, cumulative = -3.419502870313333e-09
DILUPBiCG:  Solving for p, Initial residual = 0.0001002781410181652, Final residual = 8.831602569399598e-13, No Iterations 4
pEqnloop: 1
diagonal:  Solving for rho, Initial residual = 0, Final residual = 0, No Iterations 0
time step continuity errors : sum local = 2.38374331572154e-16, global = 2.817245925492733e-17, cumulative = -3.419502842140874e-09
DILUPBiCG:  Solving for k, Initial residual = 0.009190086364077083, Final residual = 1.120850178816906e-13, No Iterations 5
ExecutionTime = 1952.7 s  ClockTime = 9988 s

APIO_IO_STEP = 51.1754846529966
Courant Number mean: 4.801638537621375e-06 max: 0.1994714258928386
deltaT = 2.763471591923442e-06
Time = 0.000181568

PIMPLE: iteration 1
diagonal:  Solving for rho, Initial residual = 0, Final residual = 0, No Iterations 0
DILUPBiCG:  Solving for Ux, Initial residual = 0.01578110352051421, Final residual = 9.414951578773636e-14, No Iterations 5
DILUPBiCG:  Solving for Uy, Initial residual = 0.01578052927978775, Final residual = 2.384063341784342e-13, No Iterations 5
DILUPBiCG:  Solving for Uz, Initial residual = 0.007827662112487173, Final residual = 2.017833529125242e-13, No Iterations 5
DILUPBiCG:  Solving for e, Initial residual = 0.01124448454656797, Final residual = 8.71077205106813e-13, No Iterations 4
DILUPBiCG:  Solving for p, Initial residual = 0.01459110358518391, Final residual = 2.453402706048681e-05, No Iterations 1
pEqnloop: 0
diagonal:  Solving for rho, Initial residual = 0, Final residual = 0, No Iterations 0
time step continuity errors : sum local = 2.143993478637787e-09, global = -4.63870182112885e-10, cumulative = -3.883373024253758e-09
DILUPBiCG:  Solving for p, Initial residual = 0.0001045313262964032, Final residual = 1.352845112675571e-14, No Iterations 5
pEqnloop: 1
diagonal:  Solving for rho, Initial residual = 0, Final residual = 0, No Iterations 0
time step continuity errors : sum local = 1.66601560756547e-16, global = 4.395491308734442e-17, cumulative = -3.883372980298846e-09
DILUPBiCG:  Solving for k, Initial residual = 0.009177702489741464, Final residual = 1.412147351036973e-14, No Iterations 5
ExecutionTime = 1967.89 s  ClockTime = 10088 s

APIO_IO_STEP = 55.2999371340029
Courant Number mean: 4.925852297420946e-06 max: 0.1990688374297579
deltaT = 2.776397981324955e-06
Time = 0.000184344

PIMPLE: iteration 1
diagonal:  Solving for rho, Initial residual = 0, Final residual = 0, No Iterations 0
DILUPBiCG:  Solving for Ux, Initial residual = 0.01565978421814609, Final residual = 9.186420420489101e-14, No Iterations 5
DILUPBiCG:  Solving for Uy, Initial residual = 0.01565952154583285, Final residual = 2.43857475471424e-13, No Iterations 5
DILUPBiCG:  Solving for Uz, Initial residual = 0.007789165866600859, Final residual = 1.974719445850838e-13, No Iterations 5
DILUPBiCG:  Solving for e, Initial residual = 0.01121958626760566, Final residual = 7.511132762840428e-13, No Iterations 4
DILUPBiCG:  Solving for p, Initial residual = 0.0145237431937845, Final residual = 2.473245737621525e-05, No Iterations 1
pEqnloop: 0
diagonal:  Solving for rho, Initial residual = 0, Final residual = 0, No Iterations 0
time step continuity errors : sum local = 2.19791065316171e-09, global = -4.928543485393551e-10, cumulative = -4.376227328838201e-09
DILUPBiCG:  Solving for p, Initial residual = 0.0001035448696129167, Final residual = 2.580200057432969e-14, No Iterations 5
pEqnloop: 1
diagonal:  Solving for rho, Initial residual = 0, Final residual = 0, No Iterations 0
time step continuity errors : sum local = 1.706938842940615e-16, global = -5.184275752434966e-17, cumulative = -4.376227380680958e-09
DILUPBiCG:  Solving for k, Initial residual = 0.00916154478131043, Final residual = 2.286767300696308e-14, No Iterations 5
ExecutionTime = 2004.55 s  ClockTime = 10184 s

APIO_IO_STEP = 44.1372730510011
Courant Number mean: 5.062524134739926e-06 max: 0.1984610558095709
deltaT = 2.797927250763974e-06
Time = 0.000187142

PIMPLE: iteration 1
diagonal:  Solving for rho, Initial residual = 0, Final residual = 0, No Iterations 0
DILUPBiCG:  Solving for Ux, Initial residual = 0.01562106192044974, Final residual = 9.153561444752761e-14, No Iterations 5
DILUPBiCG:  Solving for Uy, Initial residual = 0.01562085098578561, Final residual = 2.5419288179615e-13, No Iterations 5
DILUPBiCG:  Solving for Uz, Initial residual = 0.007791955179285178, Final residual = 1.989223502208029e-13, No Iterations 5
DILUPBiCG:  Solving for e, Initial residual = 0.01125085769820764, Final residual = 2.092921123719577e-14, No Iterations 5
DILUPBiCG:  Solving for p, Initial residual = 0.01463276755797352, Final residual = 2.559580288565558e-05, No Iterations 1
pEqnloop: 0
diagonal:  Solving for rho, Initial residual = 0, Final residual = 0, No Iterations 0
time step continuity errors : sum local = 2.312827371141315e-09, global = -5.214427426682637e-10, cumulative = -4.897670123349222e-09
DILUPBiCG:  Solving for p, Initial residual = 0.0001028940423964863, Final residual = 2.100713509976326e-14, No Iterations 5
pEqnloop: 1
diagonal:  Solving for rho, Initial residual = 0, Final residual = 0, No Iterations 0
time step continuity errors : sum local = 1.859819742329372e-16, global = -1.061616518106471e-16, cumulative = -4.897670229510874e-09
DILUPBiCG:  Solving for k, Initial residual = 0.009180375258918036, Final residual = 2.70684376744825e-14, No Iterations 5
ExecutionTime = 2025.85 s  ClockTime = 10271 s

APIO_IO_STEP = 47.92259615300645
Courant Number mean: 5.218012302746271e-06 max: 0.2007246559702626
deltaT = 2.787826176350228e-06
Time = 0.00018993

PIMPLE: iteration 1
diagonal:  Solving for rho, Initial residual = 0, Final residual = 0, No Iterations 0
DILUPBiCG:  Solving for Ux, Initial residual = 0.01545023333788343, Final residual = 8.618136853423819e-14, No Iterations 5
DILUPBiCG:  Solving for Uy, Initial residual = 0.01545000821830762, Final residual = 2.504588390114075e-13, No Iterations 5
DILUPBiCG:  Solving for Uz, Initial residual = 0.007701435108606445, Final residual = 1.907689973295738e-13, No Iterations 5
DILUPBiCG:  Solving for e, Initial residual = 0.0112375198702615, Final residual = 2.00697144530972e-14, No Iterations 5
DILUPBiCG:  Solving for p, Initial residual = 0.01453230026779017, Final residual = 2.501558793713368e-05, No Iterations 1
pEqnloop: 0
diagonal:  Solving for rho, Initial residual = 0, Final residual = 0, No Iterations 0
time step continuity errors : sum local = 2.297985281515851e-09, global = -4.839461740252982e-10, cumulative = -5.381616403536172e-09
DILUPBiCG:  Solving for p, Initial residual = 0.0001046832913453989, Final residual = 1.469026483936328e-14, No Iterations 5
pEqnloop: 1
diagonal:  Solving for rho, Initial residual = 0, Final residual = 0, No Iterations 0
time step continuity errors : sum local = 1.724885465263548e-16, global = -6.336914538168136e-17, cumulative = -5.381616466905318e-09
DILUPBiCG:  Solving for k, Initial residual = 0.009121761750122038, Final residual = 1.116308256608561e-14, No Iterations 5
ExecutionTime = 2054.59 s  ClockTime = 10363 s

APIO_IO_STEP = 46.77483797599962
Courant Number mean: 5.315248164517074e-06 max: 0.2018838275544588
deltaT = 2.761812285927845e-06
Time = 0.000192692

PIMPLE: iteration 1
diagonal:  Solving for rho, Initial residual = 0, Final residual = 0, No Iterations 0
DILUPBiCG:  Solving for Ux, Initial residual = 0.01520708728323961, Final residual = 7.949635201757859e-14, No Iterations 5
DILUPBiCG:  Solving for Uy, Initial residual = 0.01520697979140423, Final residual = 2.355390933239751e-13, No Iterations 5
DILUPBiCG:  Solving for Uz, Initial residual = 0.007565843460190153, Final residual = 1.750226715868761e-13, No Iterations 5
DILUPBiCG:  Solving for e, Initial residual = 0.01110164722903437, Final residual = 1.63934330914427e-14, No Iterations 5
DILUPBiCG:  Solving for p, Initial residual = 0.01439953734418695, Final residual = 2.443715641737357e-05, No Iterations 1
pEqnloop: 0
diagonal:  Solving for rho, Initial residual = 0, Final residual = 0, No Iterations 0
time step continuity errors : sum local = 2.281443462112444e-09, global = -4.872247937453556e-10, cumulative = -5.868841260650674e-09
DILUPBiCG:  Solving for p, Initial residual = 9.72031400229348e-05, Final residual = 1.451582537267043e-14, No Iterations 5
pEqnloop: 1
diagonal:  Solving for rho, Initial residual = 0, Final residual = 0, No Iterations 0
time step continuity errors : sum local = 1.651989384468693e-16, global = 2.750995621423868e-18, cumulative = -5.868841257899678e-09
DILUPBiCG:  Solving for k, Initial residual = 0.009042646127561451, Final residual = 1.220833835739887e-14, No Iterations 5
ExecutionTime = 2073.69 s  ClockTime = 10446 s

APIO_IO_STEP = 46.23725611799819
Courant Number mean: 5.37841733244648e-06 max: 0.2016327413668775
deltaT = 2.739448233660249e-06
Time = 0.000195431

PIMPLE: iteration 1
diagonal:  Solving for rho, Initial residual = 0, Final residual = 0, No Iterations 0
DILUPBiCG:  Solving for Ux, Initial residual = 0.01496835698883685, Final residual = 7.514793155178984e-14, No Iterations 5
DILUPBiCG:  Solving for Uy, Initial residual = 0.01496833865206676, Final residual = 2.197777111565541e-13, No Iterations 5
DILUPBiCG:  Solving for Uz, Initial residual = 0.007423232445103371, Final residual = 1.592046526878253e-13, No Iterations 5
DILUPBiCG:  Solving for e, Initial residual = 0.01099551427765653, Final residual = 1.233262140049182e-13, No Iterations 5
DILUPBiCG:  Solving for p, Initial residual = 0.01416603194260292, Final residual = 2.334403152481391e-05, No Iterations 1
pEqnloop: 0
diagonal:  Solving for rho, Initial residual = 0, Final residual = 0, No Iterations 0
time step continuity errors : sum local = 2.214493081222545e-09, global = -4.824922503743021e-10, cumulative = -6.35133350827398e-09
DILUPBiCG:  Solving for p, Initial residual = 0.0001013185214695753, Final residual = 1.054804062116481e-14, No Iterations 5
pEqnloop: 1
diagonal:  Solving for rho, Initial residual = 0, Final residual = 0, No Iterations 0
time step continuity errors : sum local = 1.758104650616391e-16, global = -7.978021479798402e-17, cumulative = -6.351333588054195e-09
DILUPBiCG:  Solving for k, Initial residual = 0.008987661222250887, Final residual = 1.466293298916395e-14, No Iterations 5
ExecutionTime = 2087.56 s  ClockTime = 10515 s

APIO_IO_STEP = 35.50758359100109
Courant Number mean: 5.445252353847783e-06 max: 0.2007911724223838
deltaT = 2.728654054469625e-06
Time = 0.00019816

PIMPLE: iteration 1
diagonal:  Solving for rho, Initial residual = 0, Final residual = 0, No Iterations 0
DILUPBiCG:  Solving for Ux, Initial residual = 0.01477899469163001, Final residual = 7.287750455949741e-14, No Iterations 5
DILUPBiCG:  Solving for Uy, Initial residual = 0.01477926508425255, Final residual = 2.083503053960467e-13, No Iterations 5
DILUPBiCG:  Solving for Uz, Initial residual = 0.007326432200109308, Final residual = 1.483308822323916e-13, No Iterations 5
DILUPBiCG:  Solving for e, Initial residual = 0.01087996354320083, Final residual = 7.289644910485362e-14, No Iterations 5
DILUPBiCG:  Solving for p, Initial residual = 0.01402393507448702, Final residual = 2.287919720587522e-05, No Iterations 1
pEqnloop: 0
diagonal:  Solving for rho, Initial residual = 0, Final residual = 0, No Iterations 0
time step continuity errors : sum local = 2.205240840534453e-09, global = -5.032851445235351e-10, cumulative = -6.85461873257773e-09
DILUPBiCG:  Solving for p, Initial residual = 9.417771857014949e-05, Final residual = 1.276538415275121e-14, No Iterations 5
pEqnloop: 1
diagonal:  Solving for rho, Initial residual = 0, Final residual = 0, No Iterations 0
time step continuity errors : sum local = 1.630625992466701e-16, global = 3.771680863093202e-17, cumulative = -6.854618694860921e-09
DILUPBiCG:  Solving for k, Initial residual = 0.008971282142796157, Final residual = 1.149924403432303e-13, No Iterations 5
ExecutionTime = 2104.32 s  ClockTime = 10584 s

APIO_IO_STEP = 34.78447193399734
Courant Number mean: 5.534766756671308e-06 max: 0.2003305952443932
deltaT = 2.724151097480433e-06
Time = 0.000200884

PIMPLE: iteration 1
diagonal:  Solving for rho, Initial residual = 0, Final residual = 0, No Iterations 0
DILUPBiCG:  Solving for Ux, Initial residual = 0.0146495256205607, Final residual = 7.141468659047469e-14, No Iterations 5
DILUPBiCG:  Solving for Uy, Initial residual = 0.0146498553493141, Final residual = 2.010496951927284e-13, No Iterations 5
DILUPBiCG:  Solving for Uz, Initial residual = 0.007274432035963178, Final residual = 1.41367276327848e-13, No Iterations 5
DILUPBiCG:  Solving for e, Initial residual = 0.01085716990142943, Final residual = 1.859321091138887e-14, No Iterations 5
DILUPBiCG:  Solving for p, Initial residual = 0.0139574033839661, Final residual = 2.283624416637411e-05, No Iterations 1
pEqnloop: 0
diagonal:  Solving for rho, Initial residual = 0, Final residual = 0, No Iterations 0
time step continuity errors : sum local = 2.236253248525492e-09, global = -5.143146014974491e-10, cumulative = -7.36893329635837e-09
DILUPBiCG:  Solving for p, Initial residual = 9.373967440840438e-05, Final residual = 1.169502487553013e-14, No Iterations 5
pEqnloop: 1
diagonal:  Solving for rho, Initial residual = 0, Final residual = 0, No Iterations 0
time step continuity errors : sum local = 1.611873247307201e-16, global = -1.808750696980374e-17, cumulative = -7.368933314445877e-09
DILUPBiCG:  Solving for k, Initial residual = 0.008982567971219334, Final residual = 1.14245741326128e-13, No Iterations 5
ExecutionTime = 2129.35 s  ClockTime = 10712 s

APIO_IO_STEP = 84.64487922899752
Terminating ...
End

APIO_IO_TIME = 5083.49154511404
Finalising parallel run
