/*---------------------------------------------------------------------------*\
| =========                 |                                                 |
| \\      /  F ield         | OpenFOAM: The Open Source CFD Toolbox           |
|  \\    /   O peration     | Version:  v1912                                 |
|   \\  /    A nd           | Website:  www.openfoam.com                      |
|    \\/     M anipulation  |                                                 |
\*---------------------------------------------------------------------------*/
Build  : _f3950763fe-20191219 OPENFOAM=1912
Arch   : "LSB;label=32;scalar=64"
Exec   : rhoPimpleFoam_METRICS -parallel
Date   : Oct 27 2020
Time   : 13:09:22
Host   : r44c1t7n2
PID    : 66138
I/O    : uncollated
Case   : /lustre/cray/ws9/2/ws/hpcmcast-ashee2/HAWK/apio_32M/512
nProcs : 512
Hosts  :
(
    (r44c1t7n2 128)
    (r44c1t7n3 128)
    (r44c1t7n4 128)
    (r44c1t8n2 128)
)
Pstream initialized with:
    floatTransfer      : 0
    nProcsSimpleSum    : 0
    commsType          : nonBlocking
    polling iterations : 0
trapFpe: Floating point exception trapping enabled (FOAM_SIGFPE).
fileModificationChecking : Monitoring run-time modified files using timeStampMaster (fileModificationSkew 10)
allowSystemOperations : Allowing user-supplied system call operations

// * * * * * * * * * * * * * * * * * * * * * * * * * * * * * * * * * * * * * //
Create time

Create mesh for time = 0


PIMPLE: Operating solver in PISO mode

Reading thermophysical properties

Selecting thermodynamics package 
{
    type            hePsiThermo;
    mixture         pureMixture;
    transport       const;
    thermo          eConst;
    equationOfState perfectGas;
    specie          specie;
    energy          sensibleInternalEnergy;
}

Reading field U

Reading/calculating face flux field phi

--> FOAM Warning : 
    From function Foam::pressureControl::pressureControl(const volScalarField&, const volScalarField&, const Foam::dictionary&, bool)
    in file cfdTools/general/pressureControl/pressureControl.C at line 123
    Reading "/lustre/cray/ws9/2/ws/hpcmcast-ashee2/HAWK/apio_32M/512/system/fvSolution.PIMPLE"
    'rhoMax' specified rather than 'pMax' or 'pMaxFactor'
    This is supported for backward-compatibility but 'pMax' or 'pMaxFactor' are more reliable.
--> FOAM Warning : 
    From function Foam::pressureControl::pressureControl(const volScalarField&, const volScalarField&, const Foam::dictionary&, bool)
    in file cfdTools/general/pressureControl/pressureControl.C at line 178
    Reading "/lustre/cray/ws9/2/ws/hpcmcast-ashee2/HAWK/apio_32M/512/system/fvSolution.PIMPLE"
    'rhoMin' specified rather than 'pMin' or 'pMinFactor'
    This is supported for backward-compatibility but 'pMin' or 'pMinFactor' are more reliable.
pressureControl
    pMax 1726187.557059955
    pMin 4747.015781914877

Creating turbulence model

Selecting turbulence model type LES
Selecting LES turbulence model kEqn
Selecting LES delta type cubeRootVol
LES
{
    LESModel        kEqn;
    turbulence      on;
    printCoeffs     on;
    delta           cubeRootVol;
    cubeRootVolCoeffs
    {
        deltaCoeff      1;
    }
    PrandtlCoeffs
    {
        delta           cubeRootVol;
        cubeRootVolCoeffs
        {
            deltaCoeff      1;
        }
        smoothCoeffs
        {
            delta           cubeRootVol;
            cubeRootVolCoeffs
            {
                deltaCoeff      1;
            }
            maxDeltaRatio   1.1;
        }
        Cdelta          0.158;
    }
    vanDriestCoeffs
    {
        delta           cubeRootVol;
        cubeRootVolCoeffs
        {
            deltaCoeff      1;
        }
        smoothCoeffs
        {
            delta           cubeRootVol;
            cubeRootVolCoeffs
            {
                deltaCoeff      1;
            }
            maxDeltaRatio   1.1;
        }
        Aplus           26;
        Cdelta          0.158;
    }
    smoothCoeffs
    {
        delta           cubeRootVol;
        cubeRootVolCoeffs
        {
            deltaCoeff      1;
        }
        maxDeltaRatio   1.1;
    }
    Ce              1.048;
    Ck              0.094;
}

Creating field dpdt

Creating field kinetic energy K

No MRF models present

procNo = 64
procNo = 65
procNo = 66
procNo = 67
procNo = 68
procNo = 69
procNo = 70
procNo = 71
procNo = 72
procNo = 73
procNo = 74
procNo = 75
procNo = 76
procNo = 77
procNo = 78
procNo = 79
procNo = 80
procNo = 81
procNo = 82
procNo = 83
procNo = 84
procNo = 85
procNo = 86
procNo = 87
procNo = 88
procNo = 89
procNo = 90
procNo = 91
procNo = 92
procNo = 93
procNo = 94
procNo = 95
procNo = 96
procNo = 97
procNo = 98
procNo = 99
procNo = 100
procNo = 101
procNo = 102
procNo = 103
procNo = 104
procNo = 105
procNo = 106
procNo = 107
procNo = 108
procNo = 109
procNo = 110
procNo = 111
procNo = 112
procNo = 113
procNo = 114
procNo = 115
procNo = 116
procNo = 117
procNo = 118
procNo = 119
procNo = 120
procNo = 121
procNo = 122
procNo = 123
procNo = 124
procNo = 125
procNo = 126
procNo = 127
No finite volume options present
procNo = 0
masterNo = 0
procNo = 1
procNo = 2
procNo = 3
procNo = 4
procNo = 5
procNo = 6
procNo = 7
procNo = 8
procNo = 9
procNo = 10
procNo = 11
procNo = 12
procNo = 13
procNo = 14
procNo = 15
procNo = 16
procNo = 17
procNo = 18
procNo = 19
procNo = 20
procNo = 21
procNo = 22
procNo = 23
procNo = 24
procNo = 25
procNo = 26
procNo = 27
procNo = 28
procNo = 29
procNo = 30
procNo = 31
procNo = 32
procNo = 33
procNo = 34
procNo = 35
procNo = 36
procNo = 37
procNo = 38
procNo = 39
procNo = 40
procNo = 41
procNo = 42
procNo = 43
procNo = 44
procNo = 45
procNo = 46
procNo = 47
procNo = 48
procNo = 49
procNo = 50
procNo = 51
procNo = 52
procNo = 53
procNo = 54
procNo = 55
procNo = 56
procNo = 57
procNo = 58
procNo = 59
procNo = 60
procNo = 61
procNo = 62
procNo = 63
procNo = 128
procNo = 384
procNo = 256
procNo = 129
procNo = 385
procNo = 257
procNo = 130
procNo = 386
procNo = 258
procNo = 131
procNo = 387
procNo = 259
procNo = 132
procNo = 388
procNo = 260
procNo = 133
procNo = 389
procNo = 261
procNo = 134
procNo = 390
procNo = 262
procNo = 135
procNo = 391
procNo = 263
procNo = 136
procNo = 392
procNo = 264
procNo = 137
procNo = 393
procNo = 265
procNo = 138
procNo = 266
procNo = 139
procNo = 267
procNo = 140
procNo = 394
procNo = 268
procNo = 141
procNo = 395
procNo = 269
procNo = 142
procNo = 396
procNo = 270
procNo = 143
procNo = 397
procNo = 271
procNo = 144
procNo = 398
procNo = 272
procNo = 145
procNo = 399
procNo = 273
procNo = 146
procNo = 400
procNo = 274
procNo = 147
procNo = 401
procNo = 275
procNo = 148
procNo = 402
procNo = 276
procNo = 149
procNo = 403
procNo = 277
procNo = 150
procNo = 404
procNo = 278
procNo = 151
procNo = 405
procNo = 279
procNo = 152
procNo = 406
procNo = 280
procNo = 153
procNo = 407
procNo = 281
procNo = 154
procNo = 408
procNo = 282
procNo = 155
procNo = 409
procNo = 283
procNo = 156
procNo = 410
procNo = 284
procNo = 157
procNo = 411
procNo = 285
procNo = 158
procNo = 412
procNo = 286
procNo = 159
procNo = 413
procNo = 287
procNo = 160
procNo = 414
procNo = 288
procNo = 161
procNo = 415
procNo = 289
procNo = 162
procNo = 416
procNo = 290
procNo = 163
procNo = 417
procNo = 291
procNo = 164
procNo = 418
procNo = 292
procNo = 165
procNo = 419
procNo = 293
procNo = 166
procNo = 420
procNo = 294
procNo = 167
procNo = 421
procNo = 295
procNo = 168
procNo = 422
procNo = 296
procNo = 169
procNo = 423
procNo = 297
procNo = 170
procNo = 424
procNo = 298
procNo = 171
procNo = 425
procNo = 299
procNo = 172
procNo = 426
procNo = 300
procNo = 173
procNo = 427
procNo = 301
procNo = 174
procNo = 428
procNo = 302
procNo = 175
procNo = 429
procNo = 303
procNo = 176
procNo = 430
procNo = 304
procNo = 177
procNo = 431
procNo = 305
procNo = 178
procNo = 432
procNo = 306
procNo = 179
procNo = 433
procNo = 307
procNo = 180
procNo = 434
procNo = 308
procNo = 181
procNo = 435
procNo = 309
procNo = 182
procNo = 436
procNo = 310
procNo = 183
procNo = 437
procNo = 311
procNo = 184
procNo = 438
procNo = 312
procNo = 185
procNo = 439
procNo = 313
procNo = 186
procNo = 440
procNo = 314
procNo = 187
procNo = 441
procNo = 315
procNo = 188
procNo = 442
procNo = 316
procNo = 189
procNo = 443
procNo = 317
procNo = 190
procNo = 444
procNo = 318
procNo = 191
procNo = 445
procNo = 319
procNo = 192
procNo = 446
procNo = 320
procNo = 193
procNo = 447
procNo = 321
procNo = 194
procNo = 448
procNo = 322
procNo = 195
procNo = 449
procNo = 323
procNo = 196
procNo = 450
procNo = 324
procNo = 197
procNo = 451
procNo = 325
procNo = 198
procNo = 452
procNo = 326
procNo = 199
procNo = 453
procNo = 327
procNo = 200
procNo = 454
procNo = 328
procNo = 201
procNo = 455
procNo = 329
procNo = 202
procNo = 456
procNo = 330
procNo = 203
procNo = 457
procNo = 331
procNo = 204
procNo = 458
procNo = 332
procNo = 205
procNo = 459
procNo = 333
procNo = 206
procNo = 460
procNo = 334
procNo = 207
procNo = 461
procNo = 335
procNo = 208
Courant Number mean: 4.134521852225827e-11 max: 2.085039370078742e-05
procNo = 462
procNo = 336
procNo = 209
procNo = 463
procNo = 337
procNo = 210
procNo = 464
procNo = 338
procNo = 211
procNo = 465
procNo = 339
procNo = 212
procNo = 466
procNo = 340
procNo = 213
procNo = 467
procNo = 341
procNo = 214
procNo = 468
procNo = 342
procNo = 215
procNo = 469
procNo = 343
procNo = 216
procNo = 470
procNo = 344
procNo = 217
procNo = 471
procNo = 345
procNo = 218
procNo = 472
procNo = 346
procNo = 219

Starting time loop

procNo = 473
procNo = 347
procNo = 220
procNo = 474
procNo = 348
procNo = 221
procNo = 475
procNo = 349
procNo = 222
procNo = 476
procNo = 350
procNo = 223
procNo = 477
procNo = 351
procNo = 224
procNo = 478
procNo = 352
procNo = 225
procNo = 479
procNo = 353
procNo = 226
procNo = 480
procNo = 354
procNo = 227
procNo = 481
procNo = 355
procNo = 228
procNo = 482
procNo = 356
procNo = 229
procNo = 483
procNo = 357
procNo = 230
procNo = 484
procNo = 358
procNo = 231
procNo = 485
procNo = 359
procNo = 232
procNo = 486
procNo = 360
procNo = 233
procNo = 487
procNo = 361
procNo = 234
procNo = 488
procNo = 362
procNo = 235
procNo = 489
procNo = 363
procNo = 236
procNo = 490
procNo = 364
procNo = 237
procNo = 491
procNo = 365
procNo = 238
procNo = 492
procNo = 366
procNo = 239
procNo = 493
procNo = 367
procNo = 240
procNo = 494
procNo = 368
procNo = 241
procNo = 495
procNo = 369
procNo = 242
procNo = 496
procNo = 370
procNo = 243
procNo = 497
procNo = 371
procNo = 244
procNo = 498
procNo = 372
procNo = 245
Courant Number mean: 4.134521852225827e-11 max: 2.085039370078742e-05
deltaT = 1.2e-09
Time = 1.2e-09

procNo = 499
procNo = 373
procNo = 246
PIMPLE: iteration 1
procNo = 500
procNo = 374
procNo = 247
procNo = 501
procNo = 375
procNo = 248
procNo = 502
procNo = 376
procNo = 249
procNo = 503
procNo = 377
procNo = 250
procNo = 504
procNo = 378
procNo = 251
procNo = 505
procNo = 379
procNo = 252
procNo = 506
procNo = 380
procNo = 253
procNo = 507
procNo = 381
procNo = 254
procNo = 508
procNo = 382
procNo = 255
procNo = 509
procNo = 383
procNo = 510
procNo = 511
diagonal:  Solving for rho, Initial residual = 0, Final residual = 0, No Iterations 0
DILUPBiCG:  Solving for Ux, Initial residual = 1, Final residual = 2.400821135260076e-20, No Iterations 2
DILUPBiCG:  Solving for Uy, Initial residual = 1, Final residual = 7.83697225276279e-21, No Iterations 2
DILUPBiCG:  Solving for Uz, Initial residual = 1, Final residual = 2.000634126255483e-20, No Iterations 2
DILUPBiCG:  Solving for e, Initial residual = 0.9999990152459558, Final residual = 8.046780500177346e-20, No Iterations 2
DILUPBiCG:  Solving for p, Initial residual = 0.9999996243058712, Final residual = 2.465849828531394e-10, No Iterations 1
diagonal:  Solving for rho, Initial residual = 0, Final residual = 0, No Iterations 0
time step continuity errors : sum local = 2.454897033059872e-16, global = -2.450079008599975e-16, cumulative = -2.450079008599975e-16
DILUPBiCG:  Solving for p, Initial residual = 1.179369358813103e-07, Final residual = 1.165832594549339e-16, No Iterations 1
diagonal:  Solving for rho, Initial residual = 0, Final residual = 0, No Iterations 0
time step continuity errors : sum local = 2.681614396634535e-16, global = -2.671853525391833e-16, cumulative = -5.121932533991807e-16
DILUPBiCG:  Solving for k, Initial residual = 0.9999999989225227, Final residual = 2.001466998483226e-20, No Iterations 2
ExecutionTime = 3.84 s  ClockTime = 5 s

ORIG_COMP_STEP = 1.173516616
ORIG_IO_STEP = 1.74420232
Courant Number mean: 4.961451094356506e-11 max: 2.501990921293873e-05
deltaT = 1.44e-09
Time = 2.64e-09

PIMPLE: iteration 1
diagonal:  Solving for rho, Initial residual = 0, Final residual = 0, No Iterations 0
DILUPBiCG:  Solving for Ux, Initial residual = 0.3749195240684504, Final residual = 5.444365015249518e-21, No Iterations 2
DILUPBiCG:  Solving for Uy, Initial residual = 0.3749195240694402, Final residual = 1.770918367874172e-21, No Iterations 2
DILUPBiCG:  Solving for Uz, Initial residual = 0.230760175717041, Final residual = 2.802826668407449e-21, No Iterations 2
DILUPBiCG:  Solving for e, Initial residual = 0.2307511997436603, Final residual = 1.125243209761694e-20, No Iterations 2
DILUPBiCG:  Solving for p, Initial residual = 0.2307584156693296, Final residual = 3.431166527828762e-11, No Iterations 1
diagonal:  Solving for rho, Initial residual = 0, Final residual = 0, No Iterations 0
time step continuity errors : sum local = 5.515912102609077e-16, global = -5.515192586890581e-16, cumulative = -1.063712512088239e-15
DILUPBiCG:  Solving for p, Initial residual = 7.89014173805499e-08, Final residual = 4.068555350743302e-15, No Iterations 1
diagonal:  Solving for rho, Initial residual = 0, Final residual = 0, No Iterations 0
time step continuity errors : sum local = 4.80587877850931e-16, global = -4.805809979726649e-16, cumulative = -1.544293510060903e-15
DILUPBiCG:  Solving for k, Initial residual = 0.7612500412424583, Final residual = 9.261564953574485e-21, No Iterations 2
ExecutionTime = 6.19 s  ClockTime = 9 s

ORIG_COMP_STEP = 2.349359941
ORIG_IO_STEP = 1.854109512
Courant Number mean: 5.953777282881991e-11 max: 3.002308059560315e-05
deltaT = 1.728e-09
Time = 4.368e-09

PIMPLE: iteration 1
diagonal:  Solving for rho, Initial residual = 0, Final residual = 0, No Iterations 0
DILUPBiCG:  Solving for Ux, Initial residual = 0.3231077196464707, Final residual = 6.819548111821359e-21, No Iterations 2
DILUPBiCG:  Solving for Uy, Initial residual = 0.3231077195889747, Final residual = 2.196212605394087e-21, No Iterations 2
DILUPBiCG:  Solving for Uz, Initial residual = 0.1406145040468577, Final residual = 2.508983817375827e-21, No Iterations 2
DILUPBiCG:  Solving for e, Initial residual = 0.140606593013355, Final residual = 1.0017701732617e-20, No Iterations 2
DILUPBiCG:  Solving for p, Initial residual = 0.1406128363179021, Final residual = 3.011331406513694e-11, No Iterations 1
diagonal:  Solving for rho, Initial residual = 0, Final residual = 0, No Iterations 0
time step continuity errors : sum local = 6.62386645028795e-16, global = -6.622727578446343e-16, cumulative = -2.206566267905538e-15
DILUPBiCG:  Solving for p, Initial residual = 5.022476125340155e-08, Final residual = 1.690495742400113e-14, No Iterations 1
diagonal:  Solving for rho, Initial residual = 0, Final residual = 0, No Iterations 0
time step continuity errors : sum local = 6.46022139630243e-16, global = -6.460218231792836e-16, cumulative = -2.852588091084821e-15
DILUPBiCG:  Solving for k, Initial residual = 0.5223926728209608, Final residual = 9.35588683515693e-21, No Iterations 2
ExecutionTime = 10.21 s  ClockTime = 15 s

ORIG_COMP_STEP = 4.007547162
ORIG_IO_STEP = 1.415706749
Courant Number mean: 7.144584772633205e-11 max: 3.602653054273847e-05
deltaT = 2.0736e-09
Time = 6.4416e-09

PIMPLE: iteration 1
diagonal:  Solving for rho, Initial residual = 0, Final residual = 0, No Iterations 0
DILUPBiCG:  Solving for Ux, Initial residual = 0.2861774460012438, Final residual = 8.845152747984667e-21, No Iterations 2
DILUPBiCG:  Solving for Uy, Initial residual = 0.2861774459396531, Final residual = 2.797172815526754e-21, No Iterations 2
DILUPBiCG:  Solving for Uz, Initial residual = 0.1060780689587346, Final residual = 2.824356949993885e-21, No Iterations 2
DILUPBiCG:  Solving for e, Initial residual = 0.1060690324671233, Final residual = 1.116945920008951e-20, No Iterations 2
DILUPBiCG:  Solving for p, Initial residual = 0.1060760658639372, Final residual = 3.272269278827666e-11, No Iterations 1
diagonal:  Solving for rho, Initial residual = 0, Final residual = 0, No Iterations 0
time step continuity errors : sum local = 3.529527453397629e-16, global = -3.496554318272083e-16, cumulative = -3.20224352291203e-15
DILUPBiCG:  Solving for p, Initial residual = 3.567966905551857e-08, Final residual = 2.480608997643497e-14, No Iterations 1
diagonal:  Solving for rho, Initial residual = 0, Final residual = 0, No Iterations 0
time step continuity errors : sum local = 3.794878204825313e-16, global = -3.787589870415737e-16, cumulative = -3.581002509953604e-15
DILUPBiCG:  Solving for k, Initial residual = 0.3755564138407447, Final residual = 1.007265495198326e-20, No Iterations 2
ExecutionTime = 14.15 s  ClockTime = 20 s

ORIG_COMP_STEP = 3.957967646999998
ORIG_IO_STEP = 6.081731983000001
Courant Number mean: 8.573577152513136e-11 max: 4.323015923841613e-05
deltaT = 2.48832e-09
Time = 8.92992e-09

PIMPLE: iteration 1
diagonal:  Solving for rho, Initial residual = 0, Final residual = 0, No Iterations 0
DILUPBiCG:  Solving for Ux, Initial residual = 0.2580115706272911, Final residual = 1.1774242249511e-20, No Iterations 2
DILUPBiCG:  Solving for Uy, Initial residual = 0.2580115707727289, Final residual = 3.622481855910747e-21, No Iterations 2
DILUPBiCG:  Solving for Uz, Initial residual = 0.08805286406073091, Final residual = 3.55555722685857e-21, No Iterations 2
DILUPBiCG:  Solving for e, Initial residual = 0.08804225828219168, Final residual = 1.387394288490415e-20, No Iterations 2
DILUPBiCG:  Solving for p, Initial residual = 0.08805033228040168, Final residual = 3.912968217294121e-11, No Iterations 1
diagonal:  Solving for rho, Initial residual = 0, Final residual = 0, No Iterations 0
time step continuity errors : sum local = 1.235330195703119e-16, global = -4.375769004737188e-17, cumulative = -3.624760200000976e-15
DILUPBiCG:  Solving for p, Initial residual = 2.012166927367775e-08, Final residual = 1.109442628728811e-14, No Iterations 1
diagonal:  Solving for rho, Initial residual = 0, Final residual = 0, No Iterations 0
time step continuity errors : sum local = 1.134846467771135e-16, global = -2.368950709016286e-17, cumulative = -3.648449707091139e-15
DILUPBiCG:  Solving for k, Initial residual = 0.2906877194100289, Final residual = 1.189185271265184e-20, No Iterations 2
ExecutionTime = 16.32 s  ClockTime = 28 s

ORIG_COMP_STEP = 2.115630813999999
ORIG_IO_STEP = 2.167417666000002
Courant Number mean: 1.02884021222287e-10 max: 5.187377896431863e-05
deltaT = 2.985983999999999e-09
Time = 1.19159e-08

PIMPLE: iteration 1
diagonal:  Solving for rho, Initial residual = 0, Final residual = 0, No Iterations 0
DILUPBiCG:  Solving for Ux, Initial residual = 0.2369027227582724, Final residual = 1.610726254457856e-20, No Iterations 2
DILUPBiCG:  Solving for Uy, Initial residual = 0.2369027228638335, Final residual = 4.769712750502259e-21, No Iterations 2
DILUPBiCG:  Solving for Uz, Initial residual = 0.07712864145506629, Final residual = 4.803132955564352e-21, No Iterations 2
DILUPBiCG:  Solving for e, Initial residual = 0.07711582076358656, Final residual = 1.842989904946048e-20, No Iterations 2
DILUPBiCG:  Solving for p, Initial residual = 0.07712531674453947, Final residual = 4.938229139008159e-11, No Iterations 1
diagonal:  Solving for rho, Initial residual = 0, Final residual = 0, No Iterations 0
time step continuity errors : sum local = 3.649578866166233e-16, global = 3.641669819063708e-16, cumulative = -3.284282725184768e-15
DILUPBiCG:  Solving for p, Initial residual = 1.304025050263848e-08, Final residual = 8.706171455793797e-15, No Iterations 1
diagonal:  Solving for rho, Initial residual = 0, Final residual = 0, No Iterations 0
time step continuity errors : sum local = 3.770827930209223e-16, global = 3.71799374687986e-16, cumulative = -2.912483350496782e-15
DILUPBiCG:  Solving for k, Initial residual = 0.2385158222502934, Final residual = 1.517904128839208e-20, No Iterations 2
ExecutionTime = 30.83 s  ClockTime = 45 s

ORIG_COMP_STEP = 14.561920033
ORIG_IO_STEP = 3.868010181000002
Courant Number mean: 1.234624193969182e-10 max: 6.224506732903098e-05
deltaT = 3.583180799999999e-09
Time = 1.54991e-08

PIMPLE: iteration 1
diagonal:  Solving for rho, Initial residual = 0, Final residual = 0, No Iterations 0
DILUPBiCG:  Solving for Ux, Initial residual = 0.2210519481331718, Final residual = 2.262250552268801e-20, No Iterations 2
DILUPBiCG:  Solving for Uy, Initial residual = 0.2210519481313479, Final residual = 6.365428727619399e-21, No Iterations 2
DILUPBiCG:  Solving for Uz, Initial residual = 0.0698995124125445, Final residual = 6.830970805590799e-21, No Iterations 2
DILUPBiCG:  Solving for e, Initial residual = 0.0698841689046113, Final residual = 2.570249347863738e-20, No Iterations 2
DILUPBiCG:  Solving for p, Initial residual = 0.06989549192064475, Final residual = 6.448885327958527e-11, No Iterations 1
diagonal:  Solving for rho, Initial residual = 0, Final residual = 0, No Iterations 0
time step continuity errors : sum local = 3.215303134373314e-16, global = 3.21153936042912e-16, cumulative = -2.59132941445387e-15
DILUPBiCG:  Solving for p, Initial residual = 1.016312506251336e-08, Final residual = 6.590577312568318e-15, No Iterations 1
diagonal:  Solving for rho, Initial residual = 0, Final residual = 0, No Iterations 0
time step continuity errors : sum local = 3.150840550353003e-16, global = 3.139816570978824e-16, cumulative = -2.277347757355987e-15
DILUPBiCG:  Solving for k, Initial residual = 0.2042783053778932, Final residual = 2.06591780661267e-20, No Iterations 2
ExecutionTime = 33 s  ClockTime = 51 s

ORIG_COMP_STEP = 2.104726685000003
ORIG_IO_STEP = 3.445873488000004
Courant Number mean: 1.481572278474789e-10 max: 7.468909815230524e-05
deltaT = 4.299816959999999e-09
Time = 1.97989e-08

PIMPLE: iteration 1
diagonal:  Solving for rho, Initial residual = 0, Final residual = 0, No Iterations 0
DILUPBiCG:  Solving for Ux, Initial residual = 0.2090173761873427, Final residual = 3.257433107450855e-20, No Iterations 2
DILUPBiCG:  Solving for Uy, Initial residual = 0.2090173761493838, Final residual = 8.572296789340915e-21, No Iterations 2
DILUPBiCG:  Solving for Uz, Initial residual = 0.06483314997476634, Final residual = 1.012387568760459e-20, No Iterations 2
DILUPBiCG:  Solving for e, Initial residual = 0.06481486809125038, Final residual = 3.728078683767412e-20, No Iterations 2
DILUPBiCG:  Solving for p, Initial residual = 0.06482828608594576, Final residual = 8.620516193422511e-11, No Iterations 1
diagonal:  Solving for rho, Initial residual = 0, Final residual = 0, No Iterations 0
time step continuity errors : sum local = 1.381817160167862e-16, global = -6.982726576083326e-17, cumulative = -2.34717502311682e-15
DILUPBiCG:  Solving for p, Initial residual = 8.694479082594828e-09, Final residual = 6.150889709677352e-15, No Iterations 1
diagonal:  Solving for rho, Initial residual = 0, Final residual = 0, No Iterations 0
time step continuity errors : sum local = 1.377107959684062e-16, global = -8.699852183683644e-17, cumulative = -2.434173544953657e-15
DILUPBiCG:  Solving for k, Initial residual = 0.1805909976032154, Final residual = 2.970358877145367e-20, No Iterations 2
ExecutionTime = 34.74 s  ClockTime = 57 s

ORIG_COMP_STEP = 1.699233176
ORIG_IO_STEP = 2.520585308000001
Courant Number mean: 1.777920721967075e-10 max: 8.961976116517033e-05
deltaT = 5.159780351999998e-09
Time = 2.49587e-08

PIMPLE: iteration 1
diagonal:  Solving for rho, Initial residual = 0, Final residual = 0, No Iterations 0
DILUPBiCG:  Solving for Ux, Initial residual = 0.1997579945751423, Final residual = 4.803964409681964e-20, No Iterations 2
DILUPBiCG:  Solving for Uy, Initial residual = 0.1997579944960256, Final residual = 1.158780922448595e-20, No Iterations 2
DILUPBiCG:  Solving for Uz, Initial residual = 0.06113782169744703, Final residual = 1.554122575826693e-20, No Iterations 2
DILUPBiCG:  Solving for e, Initial residual = 0.06111597782294291, Final residual = 5.59642259833722e-20, No Iterations 2
DILUPBiCG:  Solving for p, Initial residual = 0.06113200367165986, Final residual = 1.171802422539557e-10, No Iterations 1
diagonal:  Solving for rho, Initial residual = 0, Final residual = 0, No Iterations 0
time step continuity errors : sum local = 2.826771149412679e-16, global = -2.785461758449099e-16, cumulative = -2.712719720798567e-15
DILUPBiCG:  Solving for p, Initial residual = 5.894872863823577e-09, Final residual = 4.579167452930671e-15, No Iterations 1
diagonal:  Solving for rho, Initial residual = 0, Final residual = 0, No Iterations 0
time step continuity errors : sum local = 2.811243135270254e-16, global = -2.769693827598329e-16, cumulative = -2.9896891035584e-15
DILUPBiCG:  Solving for k, Initial residual = 0.1635155365047397, Final residual = 4.485174353626984e-20, No Iterations 2
ExecutionTime = 38.65 s  ClockTime = 63 s

ORIG_COMP_STEP = 3.880420678
ORIG_IO_STEP = 2.223224678000001
Courant Number mean: 2.133554705003822e-10 max: 0.0001075334397309669
deltaT = 6.191736422399998e-09
Time = 3.11504e-08

PIMPLE: iteration 1
diagonal:  Solving for rho, Initial residual = 0, Final residual = 0, No Iterations 0
DILUPBiCG:  Solving for Ux, Initial residual = 0.1925420159593654, Final residual = 7.253218420644334e-20, No Iterations 2
DILUPBiCG:  Solving for Uy, Initial residual = 0.1925420158798621, Final residual = 1.653860632970221e-20, No Iterations 2
DILUPBiCG:  Solving for Uz, Initial residual = 0.05836292826115815, Final residual = 2.461288168641424e-20, No Iterations 2
DILUPBiCG:  Solving for e, Initial residual = 0.0583368126839189, Final residual = 8.672738545276627e-20, No Iterations 2
DILUPBiCG:  Solving for p, Initial residual = 0.05835595348973013, Final residual = 1.612823952237285e-10, No Iterations 1
diagonal:  Solving for rho, Initial residual = 0, Final residual = 0, No Iterations 0
time step continuity errors : sum local = 5.15235025627272e-16, global = -5.071971712767059e-16, cumulative = -3.496886274835106e-15
DILUPBiCG:  Solving for p, Initial residual = 3.901629716747293e-09, Final residual = 3.562088189089538e-15, No Iterations 1
diagonal:  Solving for rho, Initial residual = 0, Final residual = 0, No Iterations 0
time step continuity errors : sum local = 5.241351150770378e-16, global = -5.214196376801689e-16, cumulative = -4.018305912515275e-15
DILUPBiCG:  Solving for k, Initial residual = 0.1508058226572495, Final residual = 7.086252828562235e-20, No Iterations 2
ExecutionTime = 40.95 s  ClockTime = 68 s

ORIG_COMP_STEP = 2.287829142000007
ORIG_IO_STEP = 2.599202636000001
Courant Number mean: 2.560338970663114e-10 max: 0.0001290253889150596
deltaT = 7.430083706879997e-09
Time = 3.85805e-08

PIMPLE: iteration 1
diagonal:  Solving for rho, Initial residual = 0, Final residual = 0, No Iterations 0
DILUPBiCG:  Solving for Ux, Initial residual = 0.186853821483883, Final residual = 1.121127249783905e-19, No Iterations 2
DILUPBiCG:  Solving for Uy, Initial residual = 0.1868538214198267, Final residual = 2.922436547832986e-20, No Iterations 2
DILUPBiCG:  Solving for Uz, Initial residual = 0.05623297147346143, Final residual = 4.009334370975008e-20, No Iterations 2
DILUPBiCG:  Solving for e, Initial residual = 0.05620172153645297, Final residual = 1.385873937805248e-19, No Iterations 2
DILUPBiCG:  Solving for p, Initial residual = 0.0562246379020168, Final residual = 2.241098988470807e-10, No Iterations 1
diagonal:  Solving for rho, Initial residual = 0, Final residual = 0, No Iterations 0
time step continuity errors : sum local = 2.454921345314995e-16, global = 2.175909816929422e-16, cumulative = -3.800714930822332e-15
DILUPBiCG:  Solving for p, Initial residual = 4.962527186153873e-09, Final residual = 5.237522471188427e-15, No Iterations 1
diagonal:  Solving for rho, Initial residual = 0, Final residual = 0, No Iterations 0
time step continuity errors : sum local = 2.008531579730943e-16, global = 1.64199721728669e-16, cumulative = -3.636515209093664e-15
DILUPBiCG:  Solving for k, Initial residual = 0.1411037708905667, Final residual = 1.16855845582159e-19, No Iterations 2
ExecutionTime = 42.56 s  ClockTime = 72 s

ORIG_COMP_STEP = 1.588079667000002
ORIG_IO_STEP = 1.372296535000004
Courant Number mean: 3.072515049199808e-10 max: 0.0001548093385833502
deltaT = 8.916100448255996e-09
Time = 4.74966e-08

PIMPLE: iteration 1
diagonal:  Solving for rho, Initial residual = 0, Final residual = 0, No Iterations 0
DILUPBiCG:  Solving for Ux, Initial residual = 0.1823252195204246, Final residual = 1.774182460628281e-19, No Iterations 2
DILUPBiCG:  Solving for Uy, Initial residual = 0.1823252194496975, Final residual = 5.562424335880013e-20, No Iterations 2
DILUPBiCG:  Solving for Uz, Initial residual = 0.05456992971926247, Final residual = 6.69981118521857e-20, No Iterations 2
DILUPBiCG:  Solving for e, Initial residual = 0.05453252170066594, Final residual = 2.282693924817434e-19, No Iterations 2
DILUPBiCG:  Solving for p, Initial residual = 0.05455995611271919, Final residual = 3.137469923631943e-10, No Iterations 1
diagonal:  Solving for rho, Initial residual = 0, Final residual = 0, No Iterations 0
time step continuity errors : sum local = 1.467959327186369e-16, global = -6.81437933846215e-17, cumulative = -3.704659002478285e-15
DILUPBiCG:  Solving for p, Initial residual = 4.566803476434544e-09, Final residual = 5.665655108865225e-15, No Iterations 1
diagonal:  Solving for rho, Initial residual = 0, Final residual = 0, No Iterations 0
time step continuity errors : sum local = 1.539553543594423e-16, global = -1.097516326861235e-16, cumulative = -3.814410635164409e-15
DILUPBiCG:  Solving for k, Initial residual = 0.1335467959425949, Final residual = 2.007564849021877e-19, No Iterations 2
ExecutionTime = 45.62 s  ClockTime = 76 s

ORIG_COMP_STEP = 3.057590717000011
ORIG_IO_STEP = 2.835748967000001
Courant Number mean: 3.687178649866197e-10 max: 0.0001857409471672458
deltaT = 1.069932053790719e-08
Time = 5.81959e-08

PIMPLE: iteration 1
diagonal:  Solving for rho, Initial residual = 0, Final residual = 0, No Iterations 0
DILUPBiCG:  Solving for Ux, Initial residual = 0.1786887645538333, Final residual = 2.873894310022666e-19, No Iterations 2
DILUPBiCG:  Solving for Uy, Initial residual = 0.1786887644995114, Final residual = 1.138206703109973e-19, No Iterations 2
DILUPBiCG:  Solving for Uz, Initial residual = 0.05325359145773416, Final residual = 1.145378053972039e-19, No Iterations 2
DILUPBiCG:  Solving for e, Initial residual = 0.05320880489852468, Final residual = 3.875448311338475e-19, No Iterations 2
DILUPBiCG:  Solving for p, Initial residual = 0.05324165611447797, Final residual = 4.418680439098135e-10, No Iterations 1
diagonal:  Solving for rho, Initial residual = 0, Final residual = 0, No Iterations 0
time step continuity errors : sum local = 1.617853998998844e-16, global = -8.758219777200595e-17, cumulative = -3.901992832936415e-15
DILUPBiCG:  Solving for p, Initial residual = 3.139559419628963e-09, Final residual = 4.618961447859611e-15, No Iterations 1
diagonal:  Solving for rho, Initial residual = 0, Final residual = 0, No Iterations 0
time step continuity errors : sum local = 1.537013788886499e-16, global = -1.240816864261561e-16, cumulative = -4.026074519362572e-15
DILUPBiCG:  Solving for k, Initial residual = 0.1275639042352795, Final residual = 3.586966960149184e-19, No Iterations 2
ExecutionTime = 48.14 s  ClockTime = 82 s

ORIG_COMP_STEP = 2.475831184
ORIG_IO_STEP = 0.8857979969999974
Courant Number mean: 4.424853672489527e-10 max: 0.0002228458487620227
deltaT = 1.283918464548863e-08
Time = 7.10351e-08

PIMPLE: iteration 1
diagonal:  Solving for rho, Initial residual = 0, Final residual = 0, No Iterations 0
DILUPBiCG:  Solving for Ux, Initial residual = 0.1757467245514024, Final residual = 4.760859460366911e-19, No Iterations 2
DILUPBiCG:  Solving for Uy, Initial residual = 0.1757467245172709, Final residual = 2.486346326772519e-19, No Iterations 2
DILUPBiCG:  Solving for Uz, Initial residual = 0.0521998172504485, Final residual = 1.996943479360695e-19, No Iterations 2
DILUPBiCG:  Solving for e, Initial residual = 0.05214614931775083, Final residual = 6.782302989547109e-19, No Iterations 2
DILUPBiCG:  Solving for p, Initial residual = 0.05218555343010049, Final residual = 6.253492031798496e-10, No Iterations 1
diagonal:  Solving for rho, Initial residual = 0, Final residual = 0, No Iterations 0
time step continuity errors : sum local = 4.586868024719005e-16, global = -4.113471222168698e-16, cumulative = -4.437421641579441e-15
DILUPBiCG:  Solving for p, Initial residual = 2.578271567574462e-09, Final residual = 4.527376402750388e-15, No Iterations 1
diagonal:  Solving for rho, Initial residual = 0, Final residual = 0, No Iterations 0
time step continuity errors : sum local = 4.288300706929567e-16, global = -4.287832359512262e-16, cumulative = -4.866204877530667e-15
DILUPBiCG:  Solving for k, Initial residual = 0.1227636793079123, Final residual = 6.653034212125734e-19, No Iterations 2
ExecutionTime = 51.96 s  ClockTime = 86 s

ORIG_COMP_STEP = 3.799970673999994
ORIG_IO_STEP = 3.442736779000001
Courant Number mean: 5.310182840453328e-10 max: 0.0002673531757326265
deltaT = 1.540702157458636e-08
Time = 8.64421e-08

PIMPLE: iteration 1
diagonal:  Solving for rho, Initial residual = 0, Final residual = 0, No Iterations 0
DILUPBiCG:  Solving for Ux, Initial residual = 0.1733503985490703, Final residual = 8.059331391420625e-19, No Iterations 2
DILUPBiCG:  Solving for Uy, Initial residual = 0.1733503985499145, Final residual = 5.869240749871898e-19, No Iterations 2
DILUPBiCG:  Solving for Uz, Initial residual = 0.0513479318730376, Final residual = 3.536823438367706e-19, No Iterations 2
DILUPBiCG:  Solving for e, Initial residual = 0.05128367482396346, Final residual = 1.223461719170441e-18, No Iterations 2
DILUPBiCG:  Solving for p, Initial residual = 0.05133091626859609, Final residual = 8.886177878506635e-10, No Iterations 1
diagonal:  Solving for rho, Initial residual = 0, Final residual = 0, No Iterations 0
time step continuity errors : sum local = 2.821548580808661e-16, global = 2.67902973523901e-16, cumulative = -4.598301904006767e-15
DILUPBiCG:  Solving for p, Initial residual = 2.803707228454004e-09, Final residual = 5.89066695357741e-15, No Iterations 1
diagonal:  Solving for rho, Initial residual = 0, Final residual = 0, No Iterations 0
time step continuity errors : sum local = 2.428493930139853e-16, global = 2.34970291597075e-16, cumulative = -4.363331612409692e-15
DILUPBiCG:  Solving for k, Initial residual = 0.1188696863738394, Final residual = 1.278267108810141e-18, No Iterations 2
ExecutionTime = 53.52 s  ClockTime = 91 s

ORIG_COMP_STEP = 1.501489873000011
ORIG_IO_STEP = 1.446813871000003
Courant Number mean: 6.372759377240493e-10 max: 0.00032073560372213
deltaT = 1.848842588950363e-08
Time = 1.04931e-07

PIMPLE: iteration 1
diagonal:  Solving for rho, Initial residual = 0, Final residual = 0, No Iterations 0
DILUPBiCG:  Solving for Ux, Initial residual = 0.1713861774667317, Final residual = 1.395047154372403e-18, No Iterations 2
DILUPBiCG:  Solving for Uy, Initial residual = 0.1713861774785555, Final residual = 1.495983863406964e-18, No Iterations 2
DILUPBiCG:  Solving for Uz, Initial residual = 0.05065305861561566, Final residual = 6.330680727444827e-19, No Iterations 2
DILUPBiCG:  Solving for e, Initial residual = 0.05057613468302802, Final residual = 2.274152511852945e-18, No Iterations 2
DILUPBiCG:  Solving for p, Initial residual = 0.05063278095962108, Final residual = 1.267092408912599e-09, No Iterations 1
diagonal:  Solving for rho, Initial residual = 0, Final residual = 0, No Iterations 0
time step continuity errors : sum local = 3.581872925256746e-16, global = 3.560212091675177e-16, cumulative = -4.007310403242174e-15
DILUPBiCG:  Solving for p, Initial residual = 2.963673024838791e-09, Final residual = 7.514815374478168e-15, No Iterations 1
diagonal:  Solving for rho, Initial residual = 0, Final residual = 0, No Iterations 0
time step continuity errors : sum local = 2.808317937799312e-16, global = 2.767853236755385e-16, cumulative = -3.730525079566636e-15
DILUPBiCG:  Solving for k, Initial residual = 0.1156816090481981, Final residual = 2.537886970989006e-18, No Iterations 2
ExecutionTime = 57.33 s  ClockTime = 97 s

ORIG_COMP_STEP = 3.807457477
ORIG_IO_STEP = 4.039751078999998
Courant Number mean: 7.648129722810315e-10 max: 0.00038475716161845
deltaT = 2.218611106740435e-08
Time = 1.27117e-07

PIMPLE: iteration 1
diagonal:  Solving for rho, Initial residual = 0, Final residual = 0, No Iterations 0
DILUPBiCG:  Solving for Ux, Initial residual = 0.1697659847600852, Final residual = 2.438346679387201e-18, No Iterations 2
DILUPBiCG:  Solving for Uy, Initial residual = 0.1697659847712339, Final residual = 3.931241085280899e-18, No Iterations 2
DILUPBiCG:  Solving for Uz, Initial residual = 0.05008126763558517, Final residual = 1.136967921524876e-18, No Iterations 2
DILUPBiCG:  Solving for e, Initial residual = 0.04998919229682752, Final residual = 4.352777257588062e-18, No Iterations 2
DILUPBiCG:  Solving for p, Initial residual = 0.05005712931036958, Final residual = 1.812224062863551e-09, No Iterations 1
diagonal:  Solving for rho, Initial residual = 0, Final residual = 0, No Iterations 0
time step continuity errors : sum local = 3.68691811036452e-16, global = -1.056626402345096e-16, cumulative = -3.836187719801146e-15
DILUPBiCG:  Solving for p, Initial residual = 3.2324260569248e-09, Final residual = 9.982851054814724e-15, No Iterations 1
diagonal:  Solving for rho, Initial residual = 0, Final residual = 0, No Iterations 0
time step continuity errors : sum local = 2.492428325310185e-16, global = -2.308804141869889e-16, cumulative = -4.067068133988135e-15
DILUPBiCG:  Solving for k, Initial residual = 0.113051022453271, Final residual = 5.192719976777609e-18, No Iterations 2
ExecutionTime = 60.45 s  ClockTime = 104 s

ORIG_COMP_STEP = 3.079848916000003
ORIG_IO_STEP = 1.534280468999995
Courant Number mean: 9.179004421098695e-10 max: 0.0004615302830703824
deltaT = 2.662333328088522e-08
Time = 1.5374e-07

PIMPLE: iteration 1
diagonal:  Solving for rho, Initial residual = 0, Final residual = 0, No Iterations 0
DILUPBiCG:  Solving for Ux, Initial residual = 0.1684205943951505, Final residual = 4.264582515115273e-18, No Iterations 2
DILUPBiCG:  Solving for Uy, Initial residual = 0.1684205944041147, Final residual = 1.083852614751958e-17, No Iterations 2
DILUPBiCG:  Solving for Uz, Initial residual = 0.0496063957713527, Final residual = 2.026887395315099e-18, No Iterations 2
DILUPBiCG:  Solving for e, Initial residual = 0.04949620276290437, Final residual = 8.570016514459875e-18, No Iterations 2
DILUPBiCG:  Solving for p, Initial residual = 0.04957770384969215, Final residual = 2.598915838254975e-09, No Iterations 1
diagonal:  Solving for rho, Initial residual = 0, Final residual = 0, No Iterations 0
time step continuity errors : sum local = 8.06651909985562e-16, global = -3.785490406606708e-16, cumulative = -4.445617174648806e-15
DILUPBiCG:  Solving for p, Initial residual = 4.082319702200111e-09, Final residual = 1.539356473897872e-14, No Iterations 1
diagonal:  Solving for rho, Initial residual = 0, Final residual = 0, No Iterations 0
time step continuity errors : sum local = 5.880627854487541e-16, global = -5.851686070528124e-16, cumulative = -5.030785781701618e-15
DILUPBiCG:  Solving for k, Initial residual = 0.1108658386650876, Final residual = 1.091790449545187e-17, No Iterations 2
ExecutionTime = 63.6 s  ClockTime = 109 s

ORIG_COMP_STEP = 3.149234468999992
ORIG_IO_STEP = 1.867454569999992
Courant Number mean: 1.101672360564608e-09 max: 0.0005535838593398187
deltaT = 3.194799993706226e-08
Time = 1.85688e-07

PIMPLE: iteration 1
diagonal:  Solving for rho, Initial residual = 0, Final residual = 0, No Iterations 0
DILUPBiCG:  Solving for Ux, Initial residual = 0.167294889193793, Final residual = 7.35266939625942e-18, No Iterations 2
DILUPBiCG:  Solving for Uy, Initial residual = 0.1672948891986725, Final residual = 3.27875163125568e-17, No Iterations 2
DILUPBiCG:  Solving for Uz, Initial residual = 0.04920787829674522, Final residual = 3.522198513458403e-18, No Iterations 2
DILUPBiCG:  Solving for e, Initial residual = 0.04907605872824279, Final residual = 1.733068027638526e-17, No Iterations 2
DILUPBiCG:  Solving for p, Initial residual = 0.04917384497306834, Final residual = 3.736478809724669e-09, No Iterations 1
diagonal:  Solving for rho, Initial residual = 0, Final residual = 0, No Iterations 0
time step continuity errors : sum local = 4.986236821458478e-16, global = 3.382778545052411e-16, cumulative = -4.692507927196376e-15
DILUPBiCG:  Solving for p, Initial residual = 4.729734236363792e-09, Final residual = 2.206909152501561e-14, No Iterations 1
diagonal:  Solving for rho, Initial residual = 0, Final residual = 0, No Iterations 0
time step continuity errors : sum local = 1.157640472048859e-16, global = -4.75378660068547e-17, cumulative = -4.740045793203231e-15
DILUPBiCG:  Solving for k, Initial residual = 0.1090398957003123, Final residual = 2.351973650132869e-17, No Iterations 2
ExecutionTime = 66.36 s  ClockTime = 113 s

ORIG_COMP_STEP = 2.734176919999996
ORIG_IO_STEP = 2.658722513000001
Courant Number mean: 1.322303588057895e-09 max: 0.0006639444024474681
deltaT = 3.833759992447472e-08
Time = 2.24026e-07

PIMPLE: iteration 1
diagonal:  Solving for rho, Initial residual = 0, Final residual = 0, No Iterations 0
DILUPBiCG:  Solving for Ux, Initial residual = 0.1663444151323716, Final residual = 1.216713948341324e-17, No Iterations 2
DILUPBiCG:  Solving for Uy, Initial residual = 0.1663444151334533, Final residual = 1.31241866928605e-16, No Iterations 2
DILUPBiCG:  Solving for Uz, Initial residual = 0.04886928998851352, Final residual = 5.760998285515926e-18, No Iterations 2
DILUPBiCG:  Solving for e, Initial residual = 0.04871167225080256, Final residual = 3.5933041736686e-17, No Iterations 2
DILUPBiCG:  Solving for p, Initial residual = 0.04882900392332462, Final residual = 5.384879096269734e-09, No Iterations 1
diagonal:  Solving for rho, Initial residual = 0, Final residual = 0, No Iterations 0
time step continuity errors : sum local = 7.780943925871294e-16, global = 7.417612990329966e-16, cumulative = -3.998284494170235e-15
DILUPBiCG:  Solving for p, Initial residual = 6.320680898352328e-09, Final residual = 3.652338569519286e-14, No Iterations 1
diagonal:  Solving for rho, Initial residual = 0, Final residual = 0, No Iterations 0
time step continuity errors : sum local = 1.347042341537468e-16, global = 7.629284982147047e-17, cumulative = -3.921991644348765e-15
DILUPBiCG:  Solving for k, Initial residual = 0.1075059387719409, Final residual = 5.176386722951146e-17, No Iterations 2
ExecutionTime = 68.05 s  ClockTime = 118 s

ORIG_COMP_STEP = 1.662449625999997
ORIG_IO_STEP = 2.574984072999996
Courant Number mean: 1.587226623908929e-09 max: 0.0007962328698137065
deltaT = 4.600511990936966e-08
Time = 2.70031e-07

PIMPLE: iteration 1
diagonal:  Solving for rho, Initial residual = 0, Final residual = 0, No Iterations 0
DILUPBiCG:  Solving for Ux, Initial residual = 0.1655328481924891, Final residual = 1.830103726523768e-17, No Iterations 2
DILUPBiCG:  Solving for Uy, Initial residual = 0.1655328481924983, Final residual = 1.158340914748694e-15, No Iterations 2
DILUPBiCG:  Solving for Uz, Initial residual = 0.04857727214033709, Final residual = 8.128589796731049e-18, No Iterations 2
DILUPBiCG:  Solving for e, Initial residual = 0.04838891058563901, Final residual = 7.623258478710646e-17, No Iterations 2
DILUPBiCG:  Solving for p, Initial residual = 0.04852970958753211, Final residual = 7.778948197613959e-09, No Iterations 1
diagonal:  Solving for rho, Initial residual = 0, Final residual = 0, No Iterations 0
time step continuity errors : sum local = 1.375847999302704e-15, global = 8.640634888549432e-16, cumulative = -3.057928155493821e-15
DILUPBiCG:  Solving for p, Initial residual = 8.989524992570928e-09, Final residual = 6.443102931353833e-14, No Iterations 1
diagonal:  Solving for rho, Initial residual = 0, Final residual = 0, No Iterations 0
time step continuity errors : sum local = 2.589004086764026e-16, global = -2.502748113027204e-16, cumulative = -3.308202966796542e-15
DILUPBiCG:  Solving for k, Initial residual = 0.106210829858529, Final residual = 1.160751362955889e-16, No Iterations 2
ExecutionTime = 70.76000000000001 s  ClockTime = 123 s

ORIG_COMP_STEP = 2.679640699000004
ORIG_IO_STEP = 2.784689885999995
Courant Number mean: 1.905397217517927e-09 max: 0.0009547802819188071
deltaT = 5.520614389124359e-08
Time = 3.25237e-07

PIMPLE: iteration 1
diagonal:  Solving for rho, Initial residual = 0, Final residual = 0, No Iterations 0
DILUPBiCG:  Solving for Ux, Initial residual = 0.1648300894146222, Final residual = 2.317380551294063e-17, No Iterations 2
DILUPBiCG:  Solving for Uy, Initial residual = 0.1648300894128833, Final residual = 1.370620059174577e-16, No Iterations 2
DILUPBiCG:  Solving for Uz, Initial residual = 0.04832074018462928, Final residual = 6.73588499295575e-18, No Iterations 2
DILUPBiCG:  Solving for e, Initial residual = 0.04809575556048991, Final residual = 1.651262351453403e-16, No Iterations 2
DILUPBiCG:  Solving for p, Initial residual = 0.04826475273720717, Final residual = 1.126463449669382e-08, No Iterations 1
diagonal:  Solving for rho, Initial residual = 0, Final residual = 0, No Iterations 0
time step continuity errors : sum local = 2.163223088502278e-15, global = 2.126412306681582e-15, cumulative = -1.18179066011496e-15
DILUPBiCG:  Solving for p, Initial residual = 1.301001919961794e-08, Final residual = 1.162615491502768e-13, No Iterations 1
diagonal:  Solving for rho, Initial residual = 0, Final residual = 0, No Iterations 0
time step continuity errors : sum local = 2.679166635279016e-16, global = 2.142033573845856e-16, cumulative = -9.675873027303741e-16
DILUPBiCG:  Solving for k, Initial residual = 0.1051120051465823, Final residual = 2.645318131592821e-16, No Iterations 2
ExecutionTime = 72.79000000000001 s  ClockTime = 128 s

ORIG_COMP_STEP = 2.008960903000002
ORIG_IO_STEP = 1.031261149000002
Courant Number mean: 2.287622078245586e-09 max: 0.00114476605899438
deltaT = 6.62473726694923e-08
Time = 3.91484e-07

PIMPLE: iteration 1
diagonal:  Solving for rho, Initial residual = 0, Final residual = 0, No Iterations 0
DILUPBiCG:  Solving for Ux, Initial residual = 0.1642108139489107, Final residual = 4.937431225169114e-17, No Iterations 2
DILUPBiCG:  Solving for Uy, Initial residual = 0.1642108139464103, Final residual = 2.096845947561011e-16, No Iterations 2
DILUPBiCG:  Solving for Uz, Initial residual = 0.04809030569414878, Final residual = 1.675888677629215e-17, No Iterations 2
DILUPBiCG:  Solving for e, Initial residual = 0.04782179772064135, Final residual = 3.643815867834708e-16, No Iterations 2
DILUPBiCG:  Solving for p, Initial residual = 0.04802468058461246, Final residual = 1.635361892903483e-08, No Iterations 1
diagonal:  Solving for rho, Initial residual = 0, Final residual = 0, No Iterations 0
time step continuity errors : sum local = 3.62511479018546e-15, global = 3.60908870616033e-15, cumulative = 2.641501403429956e-15
DILUPBiCG:  Solving for p, Initial residual = 1.920290500823647e-08, Final residual = 2.147783538460484e-13, No Iterations 1
diagonal:  Solving for rho, Initial residual = 0, Final residual = 0, No Iterations 0
time step continuity errors : sum local = 2.373615882898085e-16, global = 2.250948008969846e-16, cumulative = 2.866596204326941e-15
DILUPBiCG:  Solving for k, Initial residual = 0.104175009900324, Final residual = 6.113036170364227e-16, No Iterations 2
ExecutionTime = 77.68000000000001 s  ClockTime = 134 s

ORIG_COMP_STEP = 4.895459313999993
ORIG_IO_STEP = 2.429031780000003
Courant Number mean: 2.746966890366443e-09 max: 0.001372384141132108
deltaT = 7.949684720339076e-08
Time = 4.70981e-07

PIMPLE: iteration 1
diagonal:  Solving for rho, Initial residual = 0, Final residual = 0, No Iterations 0
DILUPBiCG:  Solving for Ux, Initial residual = 0.1636533488368993, Final residual = 2.268742804638783e-16, No Iterations 2
DILUPBiCG:  Solving for Uy, Initial residual = 0.1636533488336043, Final residual = 1.216374335431774e-15, No Iterations 2
DILUPBiCG:  Solving for Uz, Initial residual = 0.04787783833720612, Final residual = 1.148258349093327e-16, No Iterations 2
DILUPBiCG:  Solving for e, Initial residual = 0.04755770309059679, Final residual = 8.173465638525177e-16, No Iterations 2
DILUPBiCG:  Solving for p, Initial residual = 0.04780129779735259, Final residual = 2.380603383514219e-08, No Iterations 1
diagonal:  Solving for rho, Initial residual = 0, Final residual = 0, No Iterations 0
time step continuity errors : sum local = 6.113043480965711e-15, global = 6.083146848053758e-15, cumulative = 8.949743052380698e-15
DILUPBiCG:  Solving for p, Initial residual = 2.883062015676627e-08, Final residual = 4.054767879226375e-13, No Iterations 1
diagonal:  Solving for rho, Initial residual = 0, Final residual = 0, No Iterations 0
time step continuity errors : sum local = 1.471526439784409e-16, global = 1.238490321428031e-16, cumulative = 9.073592084523502e-15
DILUPBiCG:  Solving for k, Initial residual = 0.1033716719611171, Final residual = 1.429558706965485e-15, No Iterations 2
ExecutionTime = 80.09 s  ClockTime = 139 s

ORIG_COMP_STEP = 2.380129665999988
ORIG_IO_STEP = 2.810934198999973
Courant Number mean: 3.299270210812963e-09 max: 0.001645043660236679
deltaT = 9.53962166440689e-08
Time = 5.66377e-07

PIMPLE: iteration 1
diagonal:  Solving for rho, Initial residual = 0, Final residual = 0, No Iterations 0
DILUPBiCG:  Solving for Ux, Initial residual = 0.1631388013754231, Final residual = 8.863491307577156e-16, No Iterations 2
DILUPBiCG:  Solving for Uy, Initial residual = 0.1631388013720848, Final residual = 4.494956822233774e-15, No Iterations 2
DILUPBiCG:  Solving for Uz, Initial residual = 0.04767612719622161, Final residual = 4.7193158950431e-16, No Iterations 2
DILUPBiCG:  Solving for e, Initial residual = 0.04729490952980092, Final residual = 1.859707280178022e-15, No Iterations 2
DILUPBiCG:  Solving for p, Initial residual = 0.047587392999019, Final residual = 3.475661620116598e-08, No Iterations 1
diagonal:  Solving for rho, Initial residual = 0, Final residual = 0, No Iterations 0
time step continuity errors : sum local = 1.092243768105594e-14, global = 1.09095646324325e-14, cumulative = 1.9983156716956e-14
DILUPBiCG:  Solving for p, Initial residual = 4.352296067378999e-08, Final residual = 7.744016349056816e-13, No Iterations 1
diagonal:  Solving for rho, Initial residual = 0, Final residual = 0, No Iterations 0
time step continuity errors : sum local = 5.055016222493867e-16, global = 4.97072857574637e-16, cumulative = 2.048022957453064e-14
DILUPBiCG:  Solving for k, Initial residual = 0.1026787464362989, Final residual = 3.377136206003491e-15, No Iterations 2
ExecutionTime = 81.55 s  ClockTime = 143 s

ORIG_COMP_STEP = 1.421028481999997
ORIG_IO_STEP = 1.720512584999994
Courant Number mean: 3.963800060932225e-09 max: 0.001971613580785789
deltaT = 1.144754599728827e-07
Time = 6.80853e-07

PIMPLE: iteration 1
diagonal:  Solving for rho, Initial residual = 0, Final residual = 0, No Iterations 0
DILUPBiCG:  Solving for Ux, Initial residual = 0.1626503789397851, Final residual = 3.078990054185434e-15, No Iterations 2
DILUPBiCG:  Solving for Uy, Initial residual = 0.1626503789369462, Final residual = 1.488126638192787e-14, No Iterations 2
DILUPBiCG:  Solving for Uz, Initial residual = 0.04747862115142745, Final residual = 1.667195680659524e-15, No Iterations 2
DILUPBiCG:  Solving for e, Initial residual = 0.04702535171468749, Final residual = 4.283541334879064e-15, No Iterations 2
DILUPBiCG:  Solving for p, Initial residual = 0.04737651152481611, Final residual = 5.090828926134495e-08, No Iterations 1
diagonal:  Solving for rho, Initial residual = 0, Final residual = 0, No Iterations 0
time step continuity errors : sum local = 1.846452606060233e-14, global = 1.813106857657213e-14, cumulative = 3.861129815110276e-14
DILUPBiCG:  Solving for p, Initial residual = 6.644301397019795e-08, Final residual = 3.633246731587916e-18, No Iterations 2
diagonal:  Solving for rho, Initial residual = 0, Final residual = 0, No Iterations 0
time step continuity errors : sum local = 1.77490400570788e-16, global = -1.333045782711514e-16, cumulative = 3.847799357283161e-14
DILUPBiCG:  Solving for k, Initial residual = 0.1020768882285301, Final residual = 8.047038749420789e-15, No Iterations 2
ExecutionTime = 83.31 s  ClockTime = 146 s

ORIG_COMP_STEP = 1.742003890000007
ORIG_IO_STEP = 1.840848767000011
Courant Number mean: 4.764107406323443e-09 max: 0.002362724964296397
deltaT = 1.373705519674592e-07
Time = 8.18223e-07

PIMPLE: iteration 1
diagonal:  Solving for rho, Initial residual = 0, Final residual = 0, No Iterations 0
DILUPBiCG:  Solving for Ux, Initial residual = 0.1621728689852119, Final residual = 1.00642006329905e-14, No Iterations 2
DILUPBiCG:  Solving for Uy, Initial residual = 0.1621728689822294, Final residual = 4.710218819039455e-14, No Iterations 2
DILUPBiCG:  Solving for Uz, Initial residual = 0.04727922534927421, Final residual = 5.493429213522622e-15, No Iterations 2
DILUPBiCG:  Solving for e, Initial residual = 0.04674126749762315, Final residual = 9.969563596204398e-15, No Iterations 2
DILUPBiCG:  Solving for p, Initial residual = 0.04716279867102637, Final residual = 7.483113691928005e-08, No Iterations 1
diagonal:  Solving for rho, Initial residual = 0, Final residual = 0, No Iterations 0
time step continuity errors : sum local = 3.247618761253887e-14, global = 3.24340738060048e-14, cumulative = 7.091206737883641e-14
DILUPBiCG:  Solving for p, Initial residual = 1.022087712122374e-07, Final residual = 1.269385557345725e-17, No Iterations 2
diagonal:  Solving for rho, Initial residual = 0, Final residual = 0, No Iterations 0
time step continuity errors : sum local = 2.669347698094023e-16, global = 2.542436221413834e-16, cumulative = 7.11663110009778e-14
DILUPBiCG:  Solving for k, Initial residual = 0.1015499011528072, Final residual = 1.931519338736168e-14, No Iterations 2
ExecutionTime = 86.05 s  ClockTime = 151 s

ORIG_COMP_STEP = 2.716203836000005
ORIG_IO_STEP = 1.793699462000006
Courant Number mean: 5.729157945645038e-09 max: 0.002831151431704673
deltaT = 1.64844662360951e-07
Time = 9.83068e-07

PIMPLE: iteration 1
diagonal:  Solving for rho, Initial residual = 0, Final residual = 0, No Iterations 0
DILUPBiCG:  Solving for Ux, Initial residual = 0.1616922641696874, Final residual = 3.17666641225917e-14, No Iterations 2
DILUPBiCG:  Solving for Uy, Initial residual = 0.1616922641671868, Final residual = 1.457319982058582e-13, No Iterations 2
DILUPBiCG:  Solving for Uz, Initial residual = 0.04707219310819936, Final residual = 1.742288527820299e-14, No Iterations 2
DILUPBiCG:  Solving for e, Initial residual = 0.04643511541215501, Final residual = 2.340603110962994e-14, No Iterations 2
DILUPBiCG:  Solving for p, Initial residual = 0.04694093754945181, Final residual = 1.104270200382426e-07, No Iterations 1
diagonal:  Solving for rho, Initial residual = 0, Final residual = 0, No Iterations 0
time step continuity errors : sum local = 5.716042764581855e-14, global = 5.708043202597043e-14, cumulative = 1.282467430269482e-13
DILUPBiCG:  Solving for p, Initial residual = 1.58071687347161e-07, Final residual = 4.481310226746738e-17, No Iterations 2
diagonal:  Solving for rho, Initial residual = 0, Final residual = 0, No Iterations 0
time step continuity errors : sum local = 2.023346659375225e-16, global = 1.934601628322847e-16, cumulative = 1.284402031897805e-13
DILUPBiCG:  Solving for k, Initial residual = 0.1010841810071383, Final residual = 4.665061583688959e-14, No Iterations 2
ExecutionTime = 89.98 s  ClockTime = 157 s

ORIG_COMP_STEP = 3.921758823000005
ORIG_IO_STEP = 1.612728793999992
Courant Number mean: 6.894866665627502e-09 max: 0.003392299833639988
deltaT = 1.978135948331412e-07
Time = 1.18088e-06

PIMPLE: iteration 1
diagonal:  Solving for rho, Initial residual = 0, Final residual = 0, No Iterations 0
DILUPBiCG:  Solving for Ux, Initial residual = 0.1611955304203305, Final residual = 9.812030398349255e-14, No Iterations 2
DILUPBiCG:  Solving for Uy, Initial residual = 0.1611955304178384, Final residual = 4.450362011055462e-13, No Iterations 2
DILUPBiCG:  Solving for Uz, Initial residual = 0.04685203757424659, Final residual = 5.399519655628315e-14, No Iterations 2
DILUPBiCG:  Solving for e, Initial residual = 0.04609956088759746, Final residual = 5.534672800167432e-14, No Iterations 2
DILUPBiCG:  Solving for p, Initial residual = 0.04670615229083658, Final residual = 1.636555979166463e-07, No Iterations 1
diagonal:  Solving for rho, Initial residual = 0, Final residual = 0, No Iterations 0
time step continuity errors : sum local = 1.015099198654338e-13, global = 1.002002100612995e-13, cumulative = 2.2864041325108e-13
DILUPBiCG:  Solving for p, Initial residual = 2.455014843179887e-07, Final residual = 1.598739328259905e-16, No Iterations 2
diagonal:  Solving for rho, Initial residual = 0, Final residual = 0, No Iterations 0
time step continuity errors : sum local = 5.863609386032658e-16, global = -5.840678765725697e-16, cumulative = 2.280563453745074e-13
DILUPBiCG:  Solving for k, Initial residual = 0.1006682619337438, Final residual = 1.132677122542302e-13, No Iterations 2
ExecutionTime = 93.02 s  ClockTime = 161 s

ORIG_COMP_STEP = 3.035247279000004
ORIG_IO_STEP = 1.555687215000006
Courant Number mean: 8.306228050932797e-09 max: 0.004064862143225866
deltaT = 2.373763137997695e-07
Time = 1.41826e-06

PIMPLE: iteration 1
diagonal:  Solving for rho, Initial residual = 0, Final residual = 0, No Iterations 0
DILUPBiCG:  Solving for Ux, Initial residual = 0.1606705339349701, Final residual = 2.987374683907741e-13, No Iterations 2
DILUPBiCG:  Solving for Uy, Initial residual = 0.1606705339325342, Final residual = 1.743366541731429e-21, No Iterations 3
DILUPBiCG:  Solving for Uz, Initial residual = 0.04661356795235096, Final residual = 1.648357157187889e-13, No Iterations 2
DILUPBiCG:  Solving for e, Initial residual = 0.04572760571530154, Final residual = 1.316356452050689e-13, No Iterations 2
DILUPBiCG:  Solving for p, Initial residual = 0.04645430728102057, Final residual = 2.43674000081e-07, No Iterations 1
diagonal:  Solving for rho, Initial residual = 0, Final residual = 0, No Iterations 0
time step continuity errors : sum local = 1.797847668333519e-13, global = 1.792149003597935e-13, cumulative = 4.072712457343009e-13
DILUPBiCG:  Solving for p, Initial residual = 3.827806535930995e-07, Final residual = 5.772949678755813e-16, No Iterations 2
diagonal:  Solving for rho, Initial residual = 0, Final residual = 0, No Iterations 0
time step continuity errors : sum local = 1.288255823935788e-16, global = 5.809282969140043e-18, cumulative = 4.072770550172701e-13
DILUPBiCG:  Solving for k, Initial residual = 0.1002924923837735, Final residual = 2.762523156931698e-13, No Iterations 2
ExecutionTime = 96.29000000000001 s  ClockTime = 167 s

ORIG_COMP_STEP = 3.245704085
ORIG_IO_STEP = 2.041662430000002
Courant Number mean: 1.002034394636973e-08 max: 0.004871711166575156
deltaT = 2.848515765597234e-07
Time = 1.70311e-06

PIMPLE: iteration 1
diagonal:  Solving for rho, Initial residual = 0, Final residual = 0, No Iterations 0
DILUPBiCG:  Solving for Ux, Initial residual = 0.1601061568265851, Final residual = 9.001720877682062e-13, No Iterations 2
DILUPBiCG:  Solving for Uy, Initial residual = 0.1601061568233957, Final residual = 1.02947085275625e-20, No Iterations 3
DILUPBiCG:  Solving for Uz, Initial residual = 0.04635203042936885, Final residual = 4.979608205882246e-13, No Iterations 2
DILUPBiCG:  Solving for e, Initial residual = 0.04531285988393015, Final residual = 3.145206842527624e-13, No Iterations 2
DILUPBiCG:  Solving for p, Initial residual = 0.04618212265962716, Final residual = 3.646313260564889e-07, No Iterations 1
diagonal:  Solving for rho, Initial residual = 0, Final residual = 0, No Iterations 0
time step continuity errors : sum local = 3.212051064075503e-13, global = 3.201070614763948e-13, cumulative = 7.273841164936649e-13
DILUPBiCG:  Solving for p, Initial residual = 5.983417856612155e-07, Final residual = 2.112560534357e-15, No Iterations 2
diagonal:  Solving for rho, Initial residual = 0, Final residual = 0, No Iterations 0
time step continuity errors : sum local = 1.527014082622721e-16, global = 1.213425876409476e-16, cumulative = 7.275054590813058e-13
DILUPBiCG:  Solving for k, Initial residual = 0.09994885837413833, Final residual = 6.76354954412284e-13, No Iterations 2
ExecutionTime = 99.37 s  ClockTime = 172 s

ORIG_COMP_STEP = 3.066149359999997
ORIG_IO_STEP = 4.124852008999994
Courant Number mean: 1.211082482267239e-08 max: 0.005841174881477585
deltaT = 3.41821891871668e-07
Time = 2.04493e-06

PIMPLE: iteration 1
diagonal:  Solving for rho, Initial residual = 0, Final residual = 0, No Iterations 0
DILUPBiCG:  Solving for Ux, Initial residual = 0.1594926457855656, Final residual = 1.321970275336126e-19, No Iterations 3
DILUPBiCG:  Solving for Uy, Initial residual = 0.1594926457805758, Final residual = 7.230002807561336e-20, No Iterations 3
DILUPBiCG:  Solving for Uz, Initial residual = 0.04606335021793365, Final residual = 2.356765229309795e-20, No Iterations 3
DILUPBiCG:  Solving for e, Initial residual = 0.0448500553019297, Final residual = 7.541769749996851e-13, No Iterations 2
DILUPBiCG:  Solving for p, Initial residual = 0.04588749857659727, Final residual = 5.484961059113822e-07, No Iterations 1
diagonal:  Solving for rho, Initial residual = 0, Final residual = 0, No Iterations 0
time step continuity errors : sum local = 5.764392690971517e-13, global = 5.734022866116765e-13, cumulative = 1.300907745692982e-12
DILUPBiCG:  Solving for p, Initial residual = 9.369004485875769e-07, Final residual = 7.858346633402551e-15, No Iterations 2
diagonal:  Solving for rho, Initial residual = 0, Final residual = 0, No Iterations 0
time step continuity errors : sum local = 1.906938902691297e-16, global = -1.707721219742021e-16, cumulative = 1.300736973571008e-12
DILUPBiCG:  Solving for k, Initial residual = 0.09963076914268416, Final residual = 3.352141680973748e-20, No Iterations 3
ExecutionTime = 101.85 s  ClockTime = 179 s

ORIG_COMP_STEP = 2.434989639999998
ORIG_IO_STEP = 3.005339488999994
Courant Number mean: 1.467431533041869e-08 max: 0.00700890970103537
deltaT = 4.101862702460016e-07
Time = 2.45512e-06

PIMPLE: iteration 1
diagonal:  Solving for rho, Initial residual = 0, Final residual = 0, No Iterations 0
DILUPBiCG:  Solving for Ux, Initial residual = 0.1588222512748411, Final residual = 6.362161255842627e-19, No Iterations 3
DILUPBiCG:  Solving for Uy, Initial residual = 0.1588222512658102, Final residual = 5.423648693150398e-19, No Iterations 3
DILUPBiCG:  Solving for Uz, Initial residual = 0.04574467797072602, Final residual = 1.569769734956229e-19, No Iterations 3
DILUPBiCG:  Solving for e, Initial residual = 0.04433586813816822, Final residual = 7.137723793196205e-20, No Iterations 3
DILUPBiCG:  Solving for p, Initial residual = 0.04556997538108207, Final residual = 8.294994142543987e-07, No Iterations 1
diagonal:  Solving for rho, Initial residual = 0, Final residual = 0, No Iterations 0
time step continuity errors : sum local = 1.039052648210061e-12, global = 1.031603425008854e-12, cumulative = 2.332340398579862e-12
DILUPBiCG:  Solving for p, Initial residual = 1.467787407682294e-06, Final residual = 2.986944618363739e-14, No Iterations 2
diagonal:  Solving for rho, Initial residual = 0, Final residual = 0, No Iterations 0
time step continuity errors : sum local = 1.878019035456969e-16, global = -1.677317087346487e-16, cumulative = 2.332172666871127e-12
DILUPBiCG:  Solving for k, Initial residual = 0.09933287191840943, Final residual = 1.850258793270944e-19, No Iterations 3
ExecutionTime = 103.36 s  ClockTime = 183 s

ORIG_COMP_STEP = 1.494099058000018
ORIG_IO_STEP = 2.015860887999992
Courant Number mean: 1.784032562039218e-08 max: 0.008420730798768228
deltaT = 4.922235242952019e-07
Time = 2.94734e-06

PIMPLE: iteration 1
diagonal:  Solving for rho, Initial residual = 0, Final residual = 0, No Iterations 0
DILUPBiCG:  Solving for Ux, Initial residual = 0.1580902163752427, Final residual = 3.440123824499577e-18, No Iterations 3
DILUPBiCG:  Solving for Uy, Initial residual = 0.1580902163573546, Final residual = 4.108637188585781e-18, No Iterations 3
DILUPBiCG:  Solving for Uz, Initial residual = 0.04539524118960545, Final residual = 1.069508687064256e-18, No Iterations 3
DILUPBiCG:  Solving for e, Initial residual = 0.04377011949563898, Final residual = 3.885771157299627e-19, No Iterations 3
DILUPBiCG:  Solving for p, Initial residual = 0.04523139426454572, Final residual = 1.261063543572166e-06, No Iterations 1
diagonal:  Solving for rho, Initial residual = 0, Final residual = 0, No Iterations 0
time step continuity errors : sum local = 1.880804253364616e-12, global = 1.862252918414371e-12, cumulative = 4.194425585285498e-12
DILUPBiCG:  Solving for p, Initial residual = 2.298382605573433e-06, Final residual = 1.169113362299298e-13, No Iterations 2
diagonal:  Solving for rho, Initial residual = 0, Final residual = 0, No Iterations 0
time step continuity errors : sum local = 1.31291937437104e-16, global = 1.579331929869509e-17, cumulative = 4.194441378604797e-12
DILUPBiCG:  Solving for k, Initial residual = 0.09905077032522663, Final residual = 1.045628881741013e-18, No Iterations 3
ExecutionTime = 106.14 s  ClockTime = 188 s

ORIG_COMP_STEP = 2.766757226999999
ORIG_IO_STEP = 1.683984425999995
Courant Number mean: 2.178621074155873e-08 max: 0.01013697500769782
deltaT = 5.906682291542422e-07
Time = 3.53801e-06

PIMPLE: iteration 1
diagonal:  Solving for rho, Initial residual = 0, Final residual = 0, No Iterations 0
DILUPBiCG:  Solving for Ux, Initial residual = 0.1572961566180006, Final residual = 2.077969302664306e-17, No Iterations 3
DILUPBiCG:  Solving for Uy, Initial residual = 0.1572961565813701, Final residual = 3.134995579842151e-17, No Iterations 3
DILUPBiCG:  Solving for Uz, Initial residual = 0.04501746295449072, Final residual = 7.405408342593769e-18, No Iterations 3
DILUPBiCG:  Solving for e, Initial residual = 0.04315749598680148, Final residual = 2.671026437596661e-18, No Iterations 3
DILUPBiCG:  Solving for p, Initial residual = 0.04488030596302391, Final residual = 1.925884017459017e-06, No Iterations 1
diagonal:  Solving for rho, Initial residual = 0, Final residual = 0, No Iterations 0
time step continuity errors : sum local = 3.417158183971061e-12, global = 3.368686010868848e-12, cumulative = 7.563127389473645e-12
DILUPBiCG:  Solving for p, Initial residual = 3.593791139196675e-06, Final residual = 4.803311420496811e-13, No Iterations 2
diagonal:  Solving for rho, Initial residual = 0, Final residual = 0, No Iterations 0
time step continuity errors : sum local = 2.794601165251964e-16, global = 2.681965518885776e-16, cumulative = 7.563395586025535e-12
DILUPBiCG:  Solving for k, Initial residual = 0.09878049581869347, Final residual = 6.080540403038864e-18, No Iterations 3
ExecutionTime = 108.89 s  ClockTime = 193 s

ORIG_COMP_STEP = 2.72726031900001
ORIG_IO_STEP = 2.526448151000011
Courant Number mean: 2.675996853816117e-08 max: 0.01223925477484666
deltaT = 7.088018749850907e-07
Time = 4.24681e-06

PIMPLE: iteration 1
diagonal:  Solving for rho, Initial residual = 0, Final residual = 0, No Iterations 0
DILUPBiCG:  Solving for Ux, Initial residual = 0.156445927809645, Final residual = 1.370483551943813e-16, No Iterations 3
DILUPBiCG:  Solving for Uy, Initial residual = 0.1564459277289245, Final residual = 2.406018171117784e-16, No Iterations 3
DILUPBiCG:  Solving for Uz, Initial residual = 0.04461867171343409, Final residual = 5.188226957031867e-17, No Iterations 3
DILUPBiCG:  Solving for e, Initial residual = 0.0425105945562767, Final residual = 1.807373030027718e-17, No Iterations 3
DILUPBiCG:  Solving for p, Initial residual = 0.04452820268529054, Final residual = 2.951266181618584e-06, No Iterations 1
diagonal:  Solving for rho, Initial residual = 0, Final residual = 0, No Iterations 0
time step continuity errors : sum local = 6.223572553352232e-12, global = 6.094705482616449e-12, cumulative = 1.365810106864198e-11
DILUPBiCG:  Solving for p, Initial residual = 5.606690486654628e-06, Final residual = 5.256922888723714e-17, No Iterations 3
diagonal:  Solving for rho, Initial residual = 0, Final residual = 0, No Iterations 0
time step continuity errors : sum local = 2.129411649270009e-16, global = -1.956520017352328e-16, cumulative = 1.365790541664025e-11
DILUPBiCG:  Solving for k, Initial residual = 0.09851750423168598, Final residual = 3.616307938363894e-17, No Iterations 3
ExecutionTime = 110.86 s  ClockTime = 197 s

ORIG_COMP_STEP = 1.948638455000008
ORIG_IO_STEP = 2.414299493999977
Courant Number mean: 3.311482439793482e-08 max: 0.01484090785764444
deltaT = 8.505622499821088e-07
Time = 5.09737e-06

PIMPLE: iteration 1
diagonal:  Solving for rho, Initial residual = 0, Final residual = 0, No Iterations 0
DILUPBiCG:  Solving for Ux, Initial residual = 0.1555535928325546, Final residual = 9.558228050858781e-16, No Iterations 3
DILUPBiCG:  Solving for Uy, Initial residual = 0.1555535926241626, Final residual = 1.851716331952511e-15, No Iterations 3
DILUPBiCG:  Solving for Uz, Initial residual = 0.04421327120811154, Final residual = 3.664960513702015e-16, No Iterations 3
DILUPBiCG:  Solving for e, Initial residual = 0.04185223919679028, Final residual = 1.031312359035856e-16, No Iterations 3
DILUPBiCG:  Solving for p, Initial residual = 0.04418267829881008, Final residual = 4.532655393225966e-06, No Iterations 1
diagonal:  Solving for rho, Initial residual = 0, Final residual = 0, No Iterations 0
time step continuity errors : sum local = 1.135092797934427e-11, global = 1.100980678377154e-11, cumulative = 2.466771220041179e-11
DILUPBiCG:  Solving for p, Initial residual = 8.720769073314708e-06, Final residual = 2.442517630391296e-16, No Iterations 3
diagonal:  Solving for rho, Initial residual = 0, Final residual = 0, No Iterations 0
time step continuity errors : sum local = 2.952774592525883e-16, global = 2.302891015957107e-16, cumulative = 2.466794248951339e-11
DILUPBiCG:  Solving for k, Initial residual = 0.09825486085959927, Final residual = 2.181380041765432e-16, No Iterations 3
ExecutionTime = 113.68 s  ClockTime = 202 s

ORIG_COMP_STEP = 2.76604866400001
ORIG_IO_STEP = 1.232148059999986
Courant Number mean: 4.136192960943957e-08 max: 0.01810325950708939
deltaT = 1.02067469997853e-06
Time = 6.11805e-06

PIMPLE: iteration 1
diagonal:  Solving for rho, Initial residual = 0, Final residual = 0, No Iterations 0
DILUPBiCG:  Solving for Ux, Initial residual = 0.1546427286845738, Final residual = 6.859517853757721e-15, No Iterations 3
DILUPBiCG:  Solving for Uy, Initial residual = 0.1546427279925049, Final residual = 1.421936020839436e-14, No Iterations 3
DILUPBiCG:  Solving for Uz, Initial residual = 0.04382537652278781, Final residual = 2.596818558391908e-15, No Iterations 3
DILUPBiCG:  Solving for e, Initial residual = 0.04121618929948349, Final residual = 5.901535778430722e-16, No Iterations 3
DILUPBiCG:  Solving for p, Initial residual = 0.04386342399342234, Final residual = 6.957192339096359e-06, No Iterations 1
diagonal:  Solving for rho, Initial residual = 0, Final residual = 0, No Iterations 0
time step continuity errors : sum local = 2.067489857521786e-11, global = 1.97703040071753e-11, cumulative = 4.443824649668869e-11
DILUPBiCG:  Solving for p, Initial residual = 1.350795495126673e-05, Final residual = 1.151258777358469e-15, No Iterations 3
diagonal:  Solving for rho, Initial residual = 0, Final residual = 0, No Iterations 0
time step continuity errors : sum local = 1.844978077305912e-16, global = -4.040897982351573e-17, cumulative = 4.443820608770886e-11
DILUPBiCG:  Solving for k, Initial residual = 0.09798021290238552, Final residual = 1.329678568419113e-15, No Iterations 3
ExecutionTime = 117.81 s  ClockTime = 208 s

ORIG_COMP_STEP = 4.069720269999976
ORIG_IO_STEP = 0.8497588330000099
Courant Number mean: 5.224846453866518e-08 max: 0.02226018108209003
deltaT = 1.224809639974236e-06
Time = 7.34286e-06

PIMPLE: iteration 1
diagonal:  Solving for rho, Initial residual = 0, Final residual = 0, No Iterations 0
DILUPBiCG:  Solving for Ux, Initial residual = 0.1537465937265691, Final residual = 4.970161606474143e-14, No Iterations 3
DILUPBiCG:  Solving for Uy, Initial residual = 0.1537465912519515, Final residual = 1.08319614339316e-13, No Iterations 3
DILUPBiCG:  Solving for Uz, Initial residual = 0.04349142328018676, Final residual = 1.835392811040687e-14, No Iterations 3
DILUPBiCG:  Solving for e, Initial residual = 0.04065069589266352, Final residual = 3.348770678676392e-15, No Iterations 3
DILUPBiCG:  Solving for p, Initial residual = 0.04359231847890291, Final residual = 1.062507278993062e-05, No Iterations 1
diagonal:  Solving for rho, Initial residual = 0, Final residual = 0, No Iterations 0
time step continuity errors : sum local = 3.744906005562809e-11, global = 3.506795580581157e-11, cumulative = 7.950616189352044e-11
DILUPBiCG:  Solving for p, Initial residual = 2.077759069449624e-05, Final residual = 5.709430409708116e-15, No Iterations 3
diagonal:  Solving for rho, Initial residual = 0, Final residual = 0, No Iterations 0
time step continuity errors : sum local = 1.703071640825909e-16, global = -8.528030006343181e-17, cumulative = 7.950607661322037e-11
DILUPBiCG:  Solving for k, Initial residual = 0.09767113726538069, Final residual = 8.140172730454172e-15, No Iterations 3
ExecutionTime = 121.47 s  ClockTime = 212 s

ORIG_COMP_STEP = 3.663731018000021
ORIG_IO_STEP = 1.556605394000002
Courant Number mean: 6.686957702122222e-08 max: 0.02765364911689876
deltaT = 1.469771567969084e-06
Time = 8.81263e-06

PIMPLE: iteration 1
diagonal:  Solving for rho, Initial residual = 0, Final residual = 0, No Iterations 0
DILUPBiCG:  Solving for Ux, Initial residual = 0.1529051118719683, Final residual = 3.578155208035351e-13, No Iterations 3
DILUPBiCG:  Solving for Uy, Initial residual = 0.1529051054104814, Final residual = 8.123373808029881e-13, No Iterations 3
DILUPBiCG:  Solving for Uz, Initial residual = 0.04326190031424765, Final residual = 1.281908478865505e-13, No Iterations 3
DILUPBiCG:  Solving for e, Initial residual = 0.04021674272696011, Final residual = 1.82427468851794e-14, No Iterations 3
DILUPBiCG:  Solving for p, Initial residual = 0.04338969996991013, Final residual = 1.603120416926495e-05, No Iterations 1
diagonal:  Solving for rho, Initial residual = 0, Final residual = 0, No Iterations 0
time step continuity errors : sum local = 6.699246167351767e-11, global = 6.084085558568778e-11, cumulative = 1.403469321989081e-10
DILUPBiCG:  Solving for p, Initial residual = 3.152068138929587e-05, Final residual = 3.068446348872141e-14, No Iterations 3
diagonal:  Solving for rho, Initial residual = 0, Final residual = 0, No Iterations 0
time step continuity errors : sum local = 1.995023081106558e-16, global = -1.002865418106131e-16, cumulative = 1.403468319123663e-10
DILUPBiCG:  Solving for k, Initial residual = 0.09728905592794011, Final residual = 4.954522855756665e-14, No Iterations 3
ExecutionTime = 126.6 s  ClockTime = 219 s

ORIG_COMP_STEP = 5.144864026999983
ORIG_IO_STEP = 1.460173069000007
Courant Number mean: 8.682143440994917e-08 max: 0.03478176392043734
deltaT = 1.7637258815629e-06
Time = 1.05764e-05

PIMPLE: iteration 1
diagonal:  Solving for rho, Initial residual = 0, Final residual = 0, No Iterations 0
DILUPBiCG:  Solving for Ux, Initial residual = 0.1521560841297999, Final residual = 7.194085194693611e-13, No Iterations 4
DILUPBiCG:  Solving for Uy, Initial residual = 0.152156070747243, Final residual = 3.663454976987296e-15, No Iterations 4
DILUPBiCG:  Solving for Uz, Initial residual = 0.04320004418097646, Final residual = 8.727584775184974e-13, No Iterations 3
DILUPBiCG:  Solving for e, Initial residual = 0.03997958931930286, Final residual = 8.952008864566443e-14, No Iterations 3
DILUPBiCG:  Solving for p, Initial residual = 0.04326645733282694, Final residual = 2.366703804408086e-05, No Iterations 1
diagonal:  Solving for rho, Initial residual = 0, Final residual = 0, No Iterations 0
time step continuity errors : sum local = 1.172424829196796e-10, global = 1.017403900624548e-10, cumulative = 2.420872219748211e-10
DILUPBiCG:  Solving for p, Initial residual = 4.644028632958328e-05, Final residual = 1.74673580544159e-13, No Iterations 3
diagonal:  Solving for rho, Initial residual = 0, Final residual = 0, No Iterations 0
time step continuity errors : sum local = 1.975573680637358e-16, global = -4.117652226350808e-17, cumulative = 2.420871807982988e-10
DILUPBiCG:  Solving for k, Initial residual = 0.09677296434797665, Final residual = 2.953853588416097e-13, No Iterations 3
ExecutionTime = 129.23 s  ClockTime = 223 s

ORIG_COMP_STEP = 2.613658203999989
ORIG_IO_STEP = 3.45294458699999
Courant Number mean: 1.143995169843427e-07 max: 0.04435549052934944
deltaT = 2.11647105787548e-06
Time = 1.26928e-05

PIMPLE: iteration 1
diagonal:  Solving for rho, Initial residual = 0, Final residual = 0, No Iterations 0
DILUPBiCG:  Solving for Ux, Initial residual = 0.1515186796949219, Final residual = 5.41009201511078e-15, No Iterations 4
DILUPBiCG:  Solving for Uy, Initial residual = 0.1515186551820274, Final residual = 4.166414510302776e-14, No Iterations 4
DILUPBiCG:  Solving for Uz, Initial residual = 0.04337477550722348, Final residual = 3.640567738298199e-15, No Iterations 4
DILUPBiCG:  Solving for e, Initial residual = 0.03998895567312477, Final residual = 3.290761237739194e-13, No Iterations 3
DILUPBiCG:  Solving for p, Initial residual = 0.04321223241541342, Final residual = 3.372323868595156e-05, No Iterations 1
diagonal:  Solving for rho, Initial residual = 0, Final residual = 0, No Iterations 0
time step continuity errors : sum local = 1.980285498640882e-10, global = 1.607684078368107e-10, cumulative = 4.028555886351095e-10
DILUPBiCG:  Solving for p, Initial residual = 6.478483865036318e-05, Final residual = 2.657780480544065e-15, No Iterations 4
diagonal:  Solving for rho, Initial residual = 0, Final residual = 0, No Iterations 0
time step continuity errors : sum local = 1.637791480960183e-16, global = 2.179646910888873e-17, cumulative = 4.028556104315786e-10
DILUPBiCG:  Solving for k, Initial residual = 0.09603629580498002, Final residual = 2.013616949555762e-16, No Iterations 4
ExecutionTime = 130.97 s  ClockTime = 228 s

ORIG_COMP_STEP = 1.711398618000004
ORIG_IO_STEP = 2.182705532999989
Courant Number mean: 1.528473911779886e-07 max: 0.05734720457294341
deltaT = 2.539765269450577e-06
Time = 1.52326e-05

PIMPLE: iteration 1
diagonal:  Solving for rho, Initial residual = 0, Final residual = 0, No Iterations 0
DILUPBiCG:  Solving for Ux, Initial residual = 0.1509719722280375, Final residual = 4.269304265466207e-14, No Iterations 4
[...]
DILUPBiCG:  Solving for k, Initial residual = 0.009219430664806296, Final residual = 7.782098490412842e-13, No Iterations 5
ExecutionTime = 1226.85 s  ClockTime = 9754 s

ORIG_COMP_STEP = 23.53210211800069
ORIG_IO_STEP = 105.2476374740017
Courant Number mean: 3.823003848883856e-06 max: 0.2033459451625308
deltaT = 2.861117792597487e-06
Time = 0.000151141

PIMPLE: iteration 1
diagonal:  Solving for rho, Initial residual = 0, Final residual = 0, No Iterations 0
DILUPBiCG:  Solving for Ux, Initial residual = 0.01878738294761183, Final residual = 1.676874221354432e-13, No Iterations 5
DILUPBiCG:  Solving for Uy, Initial residual = 0.0187872251119009, Final residual = 3.705291698908941e-13, No Iterations 5
DILUPBiCG:  Solving for Uz, Initial residual = 0.00913211820615136, Final residual = 3.700384060409995e-13, No Iterations 5
DILUPBiCG:  Solving for e, Initial residual = 0.01224341248052924, Final residual = 2.15353501359531e-14, No Iterations 6
DILUPBiCG:  Solving for p, Initial residual = 0.01583122309948734, Final residual = 2.746237231146958e-05, No Iterations 1
diagonal:  Solving for rho, Initial residual = 0, Final residual = 0, No Iterations 0
time step continuity errors : sum local = 1.961986716658915e-09, global = -3.939151061738027e-10, cumulative = 9.369456552607769e-10
DILUPBiCG:  Solving for p, Initial residual = 0.0001259826011880848, Final residual = 1.236929138195588e-14, No Iterations 5
diagonal:  Solving for rho, Initial residual = 0, Final residual = 0, No Iterations 0
time step continuity errors : sum local = 1.750517266503104e-16, global = -6.975107994797549e-17, cumulative = 9.369455855096969e-10
DILUPBiCG:  Solving for k, Initial residual = 0.009029414716155809, Final residual = 2.924910691311277e-13, No Iterations 5
ExecutionTime = 1232.73 s  ClockTime = 9880 s

ORIG_COMP_STEP = 5.261632458999884
ORIG_IO_STEP = 94.99292329899981
Courant Number mean: 3.868254688212794e-06 max: 0.2026315958654412
deltaT = 2.823960182890152e-06
Time = 0.000153965

PIMPLE: iteration 1
diagonal:  Solving for rho, Initial residual = 0, Final residual = 0, No Iterations 0
DILUPBiCG:  Solving for Ux, Initial residual = 0.01825064116176933, Final residual = 1.578491449418958e-13, No Iterations 5
DILUPBiCG:  Solving for Uy, Initial residual = 0.01825022292493889, Final residual = 3.161223974564646e-13, No Iterations 5
DILUPBiCG:  Solving for Uz, Initial residual = 0.008881387090692566, Final residual = 3.31123281762798e-13, No Iterations 5
DILUPBiCG:  Solving for e, Initial residual = 0.01216627750325424, Final residual = 2.053947532850494e-14, No Iterations 6
DILUPBiCG:  Solving for p, Initial residual = 0.01558490794851333, Final residual = 2.635797917099172e-05, No Iterations 1
diagonal:  Solving for rho, Initial residual = 0, Final residual = 0, No Iterations 0
time step continuity errors : sum local = 1.921730953574307e-09, global = -3.964569471779023e-10, cumulative = 5.404886383317947e-10
DILUPBiCG:  Solving for p, Initial residual = 0.0001307489067586583, Final residual = 1.986844784235847e-14, No Iterations 5
diagonal:  Solving for rho, Initial residual = 0, Final residual = 0, No Iterations 0
time step continuity errors : sum local = 1.727295829318157e-16, global = 6.276994932870528e-17, cumulative = 5.40488701101744e-10
DILUPBiCG:  Solving for k, Initial residual = 0.008900705196893141, Final residual = 6.014810516245502e-13, No Iterations 5
ExecutionTime = 1243.65 s  ClockTime = 9997 s

ORIG_COMP_STEP = 10.38328922599976
ORIG_IO_STEP = 90.0633948930008
Courant Number mean: 3.923915642246361e-06 max: 0.2018228325062287
deltaT = 2.798454612713835e-06
Time = 0.000156763

PIMPLE: iteration 1
diagonal:  Solving for rho, Initial residual = 0, Final residual = 0, No Iterations 0
DILUPBiCG:  Solving for Ux, Initial residual = 0.0178400293753143, Final residual = 1.525545167646651e-13, No Iterations 5
DILUPBiCG:  Solving for Uy, Initial residual = 0.01783957528762083, Final residual = 2.802692382200848e-13, No Iterations 5
DILUPBiCG:  Solving for Uz, Initial residual = 0.008703815136130487, Final residual = 3.075919260303141e-13, No Iterations 5
DILUPBiCG:  Solving for e, Initial residual = 0.01198714233832589, Final residual = 2.816220341046632e-13, No Iterations 5
DILUPBiCG:  Solving for p, Initial residual = 0.01529953542264541, Final residual = 2.650719514132309e-05, No Iterations 1
diagonal:  Solving for rho, Initial residual = 0, Final residual = 0, No Iterations 0
time step continuity errors : sum local = 1.971076423553945e-09, global = -4.027650947157863e-10, cumulative = 1.377236063859577e-10
DILUPBiCG:  Solving for p, Initial residual = 0.0001230999022668482, Final residual = 5.19939876878787e-16, No Iterations 6
diagonal:  Solving for rho, Initial residual = 0, Final residual = 0, No Iterations 0
time step continuity errors : sum local = 1.713306046766679e-16, global = -7.134166982709824e-17, cumulative = 1.377235350442879e-10
DILUPBiCG:  Solving for k, Initial residual = 0.008842664614513473, Final residual = 1.772088275575196e-13, No Iterations 5
ExecutionTime = 1262.2 s  ClockTime = 10115 s

ORIG_COMP_STEP = 18.12477738199959
ORIG_IO_STEP = 90.61135663999994
Courant Number mean: 3.996064895428438e-06 max: 0.2012131437350631
deltaT = 2.78158231690723e-06
Time = 0.000159545

PIMPLE: iteration 1
diagonal:  Solving for rho, Initial residual = 0, Final residual = 0, No Iterations 0
DILUPBiCG:  Solving for Ux, Initial residual = 0.01751042359458144, Final residual = 1.474548967071283e-13, No Iterations 5
DILUPBiCG:  Solving for Uy, Initial residual = 0.01750966786313781, Final residual = 2.71971166220702e-13, No Iterations 5
DILUPBiCG:  Solving for Uz, Initial residual = 0.008569006502451994, Final residual = 2.892034599361682e-13, No Iterations 5
DILUPBiCG:  Solving for e, Initial residual = 0.0117178671918237, Final residual = 5.330347427735398e-13, No Iterations 5
DILUPBiCG:  Solving for p, Initial residual = 0.01502274820169316, Final residual = 2.64865711066394e-05, No Iterations 1
diagonal:  Solving for rho, Initial residual = 0, Final residual = 0, No Iterations 0
time step continuity errors : sum local = 2.007791973723923e-09, global = -4.354273446143085e-10, cumulative = -2.977038095700206e-10
DILUPBiCG:  Solving for p, Initial residual = 0.0001194173422388118, Final residual = 1.33959237849893e-14, No Iterations 5
diagonal:  Solving for rho, Initial residual = 0, Final residual = 0, No Iterations 0
time step continuity errors : sum local = 1.822428438522331e-16, global = -9.844023825918937e-17, cumulative = -2.977039080102589e-10
DILUPBiCG:  Solving for k, Initial residual = 0.008844295052837937, Final residual = 1.465531591571022e-13, No Iterations 5
ExecutionTime = 1277.9 s  ClockTime = 10224 s

ORIG_COMP_STEP = 15.26301428499937
ORIG_IO_STEP = 99.22817495399977
Courant Number mean: 4.081629835566282e-06 max: 0.2009332534455702
deltaT = 2.768662995506322e-06
Time = 0.000162314

PIMPLE: iteration 1
diagonal:  Solving for rho, Initial residual = 0, Final residual = 0, No Iterations 0
DILUPBiCG:  Solving for Ux, Initial residual = 0.01720899663146085, Final residual = 1.407018292535524e-13, No Iterations 5
DILUPBiCG:  Solving for Uy, Initial residual = 0.01720827702588894, Final residual = 2.725903533724611e-13, No Iterations 5
DILUPBiCG:  Solving for Uz, Initial residual = 0.008449080888842221, Final residual = 2.702009638007379e-13, No Iterations 5
DILUPBiCG:  Solving for e, Initial residual = 0.0115162621980464, Final residual = 5.443703103221929e-14, No Iterations 5
DILUPBiCG:  Solving for p, Initial residual = 0.01491281952906088, Final residual = 2.642574553178771e-05, No Iterations 1
diagonal:  Solving for rho, Initial residual = 0, Final residual = 0, No Iterations 0
time step continuity errors : sum local = 2.041241926587059e-09, global = -4.631284020845541e-10, cumulative = -7.60832310094813e-10
DILUPBiCG:  Solving for p, Initial residual = 0.00010599719686571, Final residual = 9.513961062975412e-15, No Iterations 5
diagonal:  Solving for rho, Initial residual = 0, Final residual = 0, No Iterations 0
time step continuity errors : sum local = 1.685357417766342e-16, global = 5.255021727503263e-17, cumulative = -7.608322575445957e-10
DILUPBiCG:  Solving for k, Initial residual = 0.008892317237381885, Final residual = 7.076054810325611e-13, No Iterations 5
ExecutionTime = 1283.72 s  ClockTime = 10345 s

ORIG_COMP_STEP = 5.224830434000978
ORIG_IO_STEP = 87.46850878300029
Courant Number mean: 4.171860798013187e-06 max: 0.2009168135606383
deltaT = 2.75602917091924e-06
Time = 0.00016507

PIMPLE: iteration 1
diagonal:  Solving for rho, Initial residual = 0, Final residual = 0, No Iterations 0
DILUPBiCG:  Solving for Ux, Initial residual = 0.01688793305715422, Final residual = 1.34139934133597e-13, No Iterations 5
DILUPBiCG:  Solving for Uy, Initial residual = 0.01688721051905481, Final residual = 2.679443837418557e-13, No Iterations 5
DILUPBiCG:  Solving for Uz, Initial residual = 0.008311117148244845, Final residual = 2.503672667728605e-13, No Iterations 5
DILUPBiCG:  Solving for e, Initial residual = 0.01144794899926521, Final residual = 4.8260236520095e-14, No Iterations 5
DILUPBiCG:  Solving for p, Initial residual = 0.01488790134839682, Final residual = 2.532889223945313e-05, No Iterations 1
diagonal:  Solving for rho, Initial residual = 0, Final residual = 0, No Iterations 0
time step continuity errors : sum local = 1.992863675706145e-09, global = -4.399699073004523e-10, cumulative = -1.200802164845048e-09
DILUPBiCG:  Solving for p, Initial residual = 9.861244883145002e-05, Final residual = 5.872203951997275e-15, No Iterations 5
diagonal:  Solving for rho, Initial residual = 0, Final residual = 0, No Iterations 0
time step continuity errors : sum local = 1.6774837565759e-16, global = 5.15726044473078e-17, cumulative = -1.200802113272444e-09
DILUPBiCG:  Solving for k, Initial residual = 0.008971409560001831, Final residual = 1.471375658588164e-13, No Iterations 5
ExecutionTime = 1289.36 s  ClockTime = 10449 s

ORIG_COMP_STEP = 5.136584935999053
ORIG_IO_STEP = 99.25916832299845
Courant Number mean: 4.260361879013404e-06 max: 0.2009822752152957
deltaT = 2.742559430145689e-06
Time = 0.000167812

PIMPLE: iteration 1
diagonal:  Solving for rho, Initial residual = 0, Final residual = 0, No Iterations 0
DILUPBiCG:  Solving for Ux, Initial residual = 0.01656965782572031, Final residual = 1.268600413778099e-13, No Iterations 5
DILUPBiCG:  Solving for Uy, Initial residual = 0.01656925537056942, Final residual = 2.570620266631971e-13, No Iterations 5
DILUPBiCG:  Solving for Uz, Initial residual = 0.008171542056394374, Final residual = 2.333676301163954e-13, No Iterations 5
DILUPBiCG:  Solving for e, Initial residual = 0.01139438904114968, Final residual = 2.145523250841326e-14, No Iterations 5
DILUPBiCG:  Solving for p, Initial residual = 0.01479817314680286, Final residual = 2.423842254293215e-05, No Iterations 1
diagonal:  Solving for rho, Initial residual = 0, Final residual = 0, No Iterations 0
time step continuity errors : sum local = 1.941759959559461e-09, global = -3.98687600468722e-10, cumulative = -1.599489713741166e-09
DILUPBiCG:  Solving for p, Initial residual = 0.0001193481295802457, Final residual = 6.851049048133322e-13, No Iterations 4
diagonal:  Solving for rho, Initial residual = 0, Final residual = 0, No Iterations 0
time step continuity errors : sum local = 2.217146203027282e-16, global = -5.224807514727332e-17, cumulative = -1.599489765989241e-09
DILUPBiCG:  Solving for k, Initial residual = 0.009034379409496491, Final residual = 2.960682866949508e-13, No Iterations 5
ExecutionTime = 1294.45 s  ClockTime = 10570 s

ORIG_COMP_STEP = 4.48224577900146
ORIG_IO_STEP = 90.00374315699992
Courant Number mean: 4.344766981806408e-06 max: 0.2001645394956558
deltaT = 2.740304988142215e-06
Time = 0.000170553

PIMPLE: iteration 1
diagonal:  Solving for rho, Initial residual = 0, Final residual = 0, No Iterations 0
DILUPBiCG:  Solving for Ux, Initial residual = 0.01634411746525979, Final residual = 1.191431034254309e-13, No Iterations 5
DILUPBiCG:  Solving for Uy, Initial residual = 0.01634383719684488, Final residual = 2.492273729406751e-13, No Iterations 5
DILUPBiCG:  Solving for Uz, Initial residual = 0.008072912583310519, Final residual = 2.250558602419607e-13, No Iterations 5
DILUPBiCG:  Solving for e, Initial residual = 0.01129448892080316, Final residual = 5.946546766820561e-15, No Iterations 5
DILUPBiCG:  Solving for p, Initial residual = 0.01468655260615226, Final residual = 2.460072529399263e-05, No Iterations 1
diagonal:  Solving for rho, Initial residual = 0, Final residual = 0, No Iterations 0
time step continuity errors : sum local = 2.006113996205379e-09, global = -4.104793768500408e-10, cumulative = -2.009969142839281e-09
DILUPBiCG:  Solving for p, Initial residual = 0.0001173020662490061, Final residual = 8.980995399639175e-13, No Iterations 4
diagonal:  Solving for rho, Initial residual = 0, Final residual = 0, No Iterations 0
time step continuity errors : sum local = 2.372035117622939e-16, global = -2.989640673274732e-17, cumulative = -2.009969172735688e-09
DILUPBiCG:  Solving for k, Initial residual = 0.009102306050662376, Final residual = 1.469000286935389e-13, No Iterations 5
ExecutionTime = 1300.23 s  ClockTime = 10680 s

ORIG_COMP_STEP = 5.24337839799955
ORIG_IO_STEP = 105.0030499280001
Courant Number mean: 4.447008673064362e-06 max: 0.1996625214066912
deltaT = 2.744936775150197e-06
Time = 0.000173298

PIMPLE: iteration 1
diagonal:  Solving for rho, Initial residual = 0, Final residual = 0, No Iterations 0
DILUPBiCG:  Solving for Ux, Initial residual = 0.01620184367233373, Final residual = 1.108609530651628e-13, No Iterations 5
DILUPBiCG:  Solving for Uy, Initial residual = 0.01620161519740445, Final residual = 2.444153047316509e-13, No Iterations 5
DILUPBiCG:  Solving for Uz, Initial residual = 0.008009339666244357, Final residual = 2.225969996546379e-13, No Iterations 5
DILUPBiCG:  Solving for e, Initial residual = 0.01123647534944306, Final residual = 6.534578333786913e-15, No Iterations 5
DILUPBiCG:  Solving for p, Initial residual = 0.0146324886153721, Final residual = 2.493009447464739e-05, No Iterations 1
diagonal:  Solving for rho, Initial residual = 0, Final residual = 0, No Iterations 0
time step continuity errors : sum local = 2.069054222427707e-09, global = -4.354617919221916e-10, cumulative = -2.44543096465788e-09
DILUPBiCG:  Solving for p, Initial residual = 0.0001020514904007695, Final residual = 6.511136332600134e-15, No Iterations 5
diagonal:  Solving for rho, Initial residual = 0, Final residual = 0, No Iterations 0
time step continuity errors : sum local = 1.658597982396323e-16, global = -4.111639232760079e-17, cumulative = -2.445431005774272e-09
DILUPBiCG:  Solving for k, Initial residual = 0.00915952224862982, Final residual = 4.596913259250512e-15, No Iterations 6
ExecutionTime = 1317.28 s  ClockTime = 10802 s

ORIG_COMP_STEP = 16.56722693599841
ORIG_IO_STEP = 97.19767544300157
Courant Number mean: 4.562626526430001e-06 max: 0.1995656196284052
deltaT = 2.750911484915393e-06
Time = 0.000176048

PIMPLE: iteration 1
diagonal:  Solving for rho, Initial residual = 0, Final residual = 0, No Iterations 0
DILUPBiCG:  Solving for Ux, Initial residual = 0.0160735853115408, Final residual = 1.036014603481156e-13, No Iterations 5
DILUPBiCG:  Solving for Uy, Initial residual = 0.01607322296167429, Final residual = 2.4048046274201e-13, No Iterations 5
DILUPBiCG:  Solving for Uz, Initial residual = 0.007962986711750985, Final residual = 2.194019625022941e-13, No Iterations 5
DILUPBiCG:  Solving for e, Initial residual = 0.01117234402627719, Final residual = 5.401899319138533e-15, No Iterations 5
DILUPBiCG:  Solving for p, Initial residual = 0.01458054719292379, Final residual = 2.540512760113932e-05, No Iterations 1
diagonal:  Solving for rho, Initial residual = 0, Final residual = 0, No Iterations 0
time step continuity errors : sum local = 2.145501199263098e-09, global = -5.005041906995913e-10, cumulative = -2.945935196473863e-09
DILUPBiCG:  Solving for p, Initial residual = 0.0001061157593759912, Final residual = 9.928608255706354e-13, No Iterations 4
diagonal:  Solving for rho, Initial residual = 0, Final residual = 0, No Iterations 0
time step continuity errors : sum local = 2.484657354278593e-16, global = -3.375052567158028e-17, cumulative = -2.945935230224389e-09
DILUPBiCG:  Solving for k, Initial residual = 0.009187376332203697, Final residual = 1.061560646382524e-13, No Iterations 5
ExecutionTime = 1336.97 s  ClockTime = 10921 s

ORIG_COMP_STEP = 19.23069075300009
ORIG_IO_STEP = 73.6095360649997
Courant Number mean: 4.682339917555532e-06 max: 0.1996185566931017
deltaT = 2.756168094276622e-06
Time = 0.000178805

PIMPLE: iteration 1
diagonal:  Solving for rho, Initial residual = 0, Final residual = 0, No Iterations 0
DILUPBiCG:  Solving for Ux, Initial residual = 0.01592633176265118, Final residual = 9.792837445432111e-14, No Iterations 5
DILUPBiCG:  Solving for Uy, Initial residual = 0.01592572267694084, Final residual = 2.376294261373959e-13, No Iterations 5
DILUPBiCG:  Solving for Uz, Initial residual = 0.007906157358333074, Final residual = 2.110073323706981e-13, No Iterations 5
DILUPBiCG:  Solving for e, Initial residual = 0.01117324135964947, Final residual = 5.587499977557386e-13, No Iterations 4
DILUPBiCG:  Solving for p, Initial residual = 0.01458476502628308, Final residual = 2.4845457527424e-05, No Iterations 1
diagonal:  Solving for rho, Initial residual = 0, Final residual = 0, No Iterations 0
time step continuity errors : sum local = 2.134651748954956e-09, global = -4.735676400889438e-10, cumulative = -3.419502870313333e-09
DILUPBiCG:  Solving for p, Initial residual = 0.0001002781410181652, Final residual = 8.831602569399598e-13, No Iterations 4
diagonal:  Solving for rho, Initial residual = 0, Final residual = 0, No Iterations 0
time step continuity errors : sum local = 2.38374331572154e-16, global = 2.817245925492733e-17, cumulative = -3.419502842140874e-09
DILUPBiCG:  Solving for k, Initial residual = 0.009190086364077083, Final residual = 1.120850178816906e-13, No Iterations 5
ExecutionTime = 1349.32 s  ClockTime = 11022 s

ORIG_COMP_STEP = 11.94312661000004
ORIG_IO_STEP = 82.34996297399994
Courant Number mean: 4.801638537621375e-06 max: 0.1994714258928386
deltaT = 2.763471591923442e-06
Time = 0.000181568

PIMPLE: iteration 1
diagonal:  Solving for rho, Initial residual = 0, Final residual = 0, No Iterations 0
DILUPBiCG:  Solving for Ux, Initial residual = 0.01578110352051421, Final residual = 9.414951578773636e-14, No Iterations 5
DILUPBiCG:  Solving for Uy, Initial residual = 0.01578052927978775, Final residual = 2.384063341784342e-13, No Iterations 5
DILUPBiCG:  Solving for Uz, Initial residual = 0.007827662112487173, Final residual = 2.017833529125242e-13, No Iterations 5
DILUPBiCG:  Solving for e, Initial residual = 0.01124448454656797, Final residual = 8.71077205106813e-13, No Iterations 4
DILUPBiCG:  Solving for p, Initial residual = 0.01459110358518391, Final residual = 2.453402706048681e-05, No Iterations 1
diagonal:  Solving for rho, Initial residual = 0, Final residual = 0, No Iterations 0
time step continuity errors : sum local = 2.143993478637787e-09, global = -4.63870182112885e-10, cumulative = -3.883373024253758e-09
DILUPBiCG:  Solving for p, Initial residual = 0.0001045313262964032, Final residual = 1.352845112675571e-14, No Iterations 5
diagonal:  Solving for rho, Initial residual = 0, Final residual = 0, No Iterations 0
time step continuity errors : sum local = 1.66601560756547e-16, global = 4.395491308734442e-17, cumulative = -3.883372980298846e-09
DILUPBiCG:  Solving for k, Initial residual = 0.009177702489741464, Final residual = 1.412147351036973e-14, No Iterations 5
ExecutionTime = 1371.3 s  ClockTime = 11140 s

ORIG_COMP_STEP = 21.59661347099973
