/*---------------------------------------------------------------------------*\
| =========                 |                                                 |
| \\      /  F ield         | OpenFOAM: The Open Source CFD Toolbox           |
|  \\    /   O peration     | Version:  v1912                                 |
|   \\  /    A nd           | Website:  www.openfoam.com                      |
|    \\/     M anipulation  |                                                 |
\*---------------------------------------------------------------------------*/
Build  : _f3950763fe-20191219 OPENFOAM=1912
Arch   : "LSB;label=32;scalar=64"
Exec   : rhoPimpleAPIO_METRICS -parallel
Date   : Nov 26 2020
Time   : 18:30:22
Host   : r33c3t6n4
PID    : 198985
I/O    : uncollated
Case   : /lustre/cray/ws9/2/ws/hpcmcast-ashee_single
nProcs : 128
Hosts  :
(
    (r33c3t6n4 128)
)
Pstream initialized with:
    floatTransfer      : 0
    nProcsSimpleSum    : 0
    commsType          : nonBlocking
    polling iterations : 0
trapFpe: Floating point exception trapping enabled (FOAM_SIGFPE).
fileModificationChecking : Monitoring run-time modified files using timeStampMaster (fileModificationSkew 10)
allowSystemOperations : Allowing user-supplied system call operations

// * * * * * * * * * * * * * * * * * * * * * * * * * * * * * * * * * * * * * //
Create time

Create mesh for time = 0


PIMPLE: Operating solver in PISO mode

Reading thermophysical properties

Selecting thermodynamics package 
{
    type            hePsiThermo;
    mixture         pureMixture;
    transport       const;
    thermo          eConst;
    equationOfState perfectGas;
    specie          specie;
    energy          sensibleInternalEnergy;
}

Reading field U

Reading/calculating face flux field phi

--> FOAM Warning : 
    From function Foam::pressureControl::pressureControl(const volScalarField&, const volScalarField&, const Foam::dictionary&, bool)
    in file cfdTools/general/pressureControl/pressureControl.C at line 123
    Reading "/lustre/cray/ws9/2/ws/hpcmcast-ashee_single/system/fvSolution.PIMPLE"
    'rhoMax' specified rather than 'pMax' or 'pMaxFactor'
    This is supported for backward-compatibility but 'pMax' or 'pMaxFactor' are more reliable.
--> FOAM Warning : 
    From function Foam::pressureControl::pressureControl(const volScalarField&, const volScalarField&, const Foam::dictionary&, bool)
    in file cfdTools/general/pressureControl/pressureControl.C at line 178
    Reading "/lustre/cray/ws9/2/ws/hpcmcast-ashee_single/system/fvSolution.PIMPLE"
    'rhoMin' specified rather than 'pMin' or 'pMinFactor'
    This is supported for backward-compatibility but 'pMin' or 'pMinFactor' are more reliable.
pressureControl
    pMax 1726187.557059955
    pMin 4747.015781914877

Creating turbulence model

Selecting turbulence model type LES
Selecting LES turbulence model kEqn
Selecting LES delta type cubeRootVol
LES
{
    LESModel        kEqn;
    turbulence      on;
    printCoeffs     on;
    delta           cubeRootVol;
    cubeRootVolCoeffs
    {
        deltaCoeff      1;
    }
    PrandtlCoeffs
    {
        delta           cubeRootVol;
        cubeRootVolCoeffs
        {
            deltaCoeff      1;
        }
        smoothCoeffs
        {
            delta           cubeRootVol;
            cubeRootVolCoeffs
            {
                deltaCoeff      1;
            }
            maxDeltaRatio   1.1;
        }
        Cdelta          0.158;
    }
    vanDriestCoeffs
    {
        delta           cubeRootVol;
        cubeRootVolCoeffs
        {
            deltaCoeff      1;
        }
        smoothCoeffs
        {
            delta           cubeRootVol;
            cubeRootVolCoeffs
            {
                deltaCoeff      1;
            }
            maxDeltaRatio   1.1;
        }
        Aplus           26;
        Cdelta          0.158;
    }
    smoothCoeffs
    {
        delta           cubeRootVol;
        cubeRootVolCoeffs
        {
            deltaCoeff      1;
        }
        maxDeltaRatio   1.1;
    }
    Ce              1.048;
    Ck              0.094;
}

Creating field dpdt

Creating field kinetic energy K

No MRF models present

APIO_procNo = 87
APIO_procNo = 88
APIO_procNo = 89
APIO_procNo = 90
APIO_procNo = 91
APIO_procNo = 92
APIO_procNo = 93
APIO_procNo = 94
APIO_procNo = 95
APIO_procNo = 96
APIO_procNo = 97
APIO_procNo = 98
APIO_procNo = 99
APIO_procNo = 100
APIO_procNo = 101
APIO_procNo = 102
APIO_procNo = 103
APIO_procNo = 104
APIO_procNo = 105
APIO_procNo = 106
APIO_procNo = 107
APIO_procNo = 108
APIO_procNo = 109
APIO_procNo = 110
APIO_procNo = 111
APIO_procNo = 112
writeThread 112 on CPU 240
APIO_procNo = 113
writeThread 113 on CPU 241
APIO_procNo = 114
writeThread 114 on CPU 242
APIO_procNo = 115
writeThread 115 on CPU 243
APIO_procNo = 116
writeThread 116 on CPU 244
APIO_procNo = 117
writeThread 117 on CPU 245
APIO_procNo = 118
writeThread 118 on CPU 246
APIO_procNo = 119
writeThread 119 on CPU 247
APIO_procNo = 120
writeThread 120 on CPU 248
APIO_procNo = 121
writeThread 121 on CPU 249
APIO_procNo = 122
writeThread 122 on CPU 250
APIO_procNo = 123
writeThread 123 on CPU 251
APIO_procNo = 124
writeThread 124 on CPU 252
APIO_procNo = 125
writeThread 125 on CPU 253
APIO_procNo = 126
writeThread 126 on CPU 254
APIO_procNo = 127
writeThread 127 on CPU 255
No finite volume options present
APIO_procNo = 0
APIO_masterNo = 0
APIO_procNo = 1
writeThread 1 on CPU 129
APIO_procNo = 2
writeThread 2 on CPU 130
APIO_procNo = 3
writeThread 3 on CPU 131
APIO_procNo = 4
writeThread 4 on CPU 132
APIO_procNo = 5
writeThread 5 on CPU 133
APIO_procNo = 6
writeThread 6 on CPU 134
APIO_procNo = 7
writeThread 7 on CPU 135
APIO_procNo = 8
writeThread 8 on CPU 136
APIO_procNo = 9
writeThread 9 on CPU 137
APIO_procNo = 10
writeThread 10 on CPU 138
APIO_procNo = 11
writeThread 11 on CPU 139
APIO_procNo = 12
writeThread 12 on CPU 140
APIO_procNo = 13
writeThread 13 on CPU 141
APIO_procNo = 14
writeThread 14 on CPU 142
APIO_procNo = 15
writeThread 15 on CPU 143
APIO_procNo = 16
writeThread 16 on CPU 144
APIO_procNo = 17
writeThread 17 on CPU 145
APIO_procNo = 18
writeThread 18 on CPU 146
APIO_procNo = 19
writeThread 19 on CPU 147
APIO_procNo = 20
writeThread 20 on CPU 148
APIO_procNo = 21
writeThread 21 on CPU 149
APIO_procNo = 22
writeThread 22 on CPU 150
APIO_procNo = 23
writeThread 23 on CPU 151
APIO_procNo = 24
writeThread 24 on CPU 152
APIO_procNo = 25
writeThread 25 on CPU 153
APIO_procNo = 26
writeThread 26 on CPU 154
APIO_procNo = 27
writeThread 27 on CPU 155
APIO_procNo = 28
writeThread 28 on CPU 156
APIO_procNo = 29
writeThread 29 on CPU 157
APIO_procNo = 30
writeThread 30 on CPU 158
APIO_procNo = 31
writeThread 31 on CPU 159
APIO_procNo = 32
writeThread 32 on CPU 160
APIO_procNo = 33
writeThread 33 on CPU 161
APIO_procNo = 34
writeThread 34 on CPU 162
APIO_procNo = 35
writeThread 35 on CPU 163
APIO_procNo = 36
writeThread 36 on CPU 164
APIO_procNo = 37
writeThread 37 on CPU 165
APIO_procNo = 38
writeThread 38 on CPU 166
APIO_procNo = 39
writeThread 39 on CPU 167
APIO_procNo = 40
writeThread 40 on CPU 168
APIO_procNo = 41
writeThread 41 on CPU 169
APIO_procNo = 42
writeThread 42 on CPU 170
APIO_procNo = 43
writeThread 43 on CPU 171
APIO_procNo = 44
writeThread 44 on CPU 172
APIO_procNo = 45
writeThread 45 on CPU 173
APIO_procNo = 46
writeThread 46 on CPU 174
APIO_procNo = 47
writeThread 47 on CPU 175
APIO_procNo = 48
writeThread 48 on CPU 176
APIO_procNo = 49
writeThread 49 on CPU 177
APIO_procNo = 50
writeThread 50 on CPU 178
APIO_procNo = 51
writeThread 51 on CPU 179
APIO_procNo = 52
writeThread 52 on CPU 180
APIO_procNo = 53
writeThread 53 on CPU 181
APIO_procNo = 54
writeThread 54 on CPU 182
APIO_procNo = 55
writeThread 55 on CPU 183
APIO_procNo = 56
writeThread 56 on CPU 184
APIO_procNo = 57
writeThread 57 on CPU 185
APIO_procNo = 58
writeThread 58 on CPU 186
APIO_procNo = 59
writeThread 59 on CPU 187
APIO_procNo = 60
writeThread 60 on CPU 188
APIO_procNo = 61
writeThread 61 on CPU 189
APIO_procNo = 62
writeThread 62 on CPU 190
APIO_procNo = 63
writeThread 63 on CPU 191
APIO_procNo = 64
writeThread 64 on CPU 192
APIO_procNo = 65
writeThread 65 on CPU 193
APIO_procNo = 66
writeThread 66 on CPU 194
APIO_procNo = 67
writeThread 67 on CPU 195
APIO_procNo = 68
writeThread 68 on CPU 196
APIO_procNo = 69
writeThread 69 on CPU 197
APIO_procNo = 70
writeThread 70 on CPU 198
APIO_procNo = 71
writeThread 71 on CPU 199
APIO_procNo = 72
writeThread 72 on CPU 200
APIO_procNo = 73
writeThread 73 on CPU 201
APIO_procNo = 74
writeThread 74 on CPU 202
APIO_procNo = 75
writeThread 75 on CPU 203
APIO_procNo = 76
writeThread 76 on CPU 204
APIO_procNo = 77
writeThread 77 on CPU 205
APIO_procNo = 78
writeThread 78 on CPU 206
APIO_procNo = 79
writeThread 79 on CPU 207
APIO_procNo = 80
writeThread 80 on CPU 208
APIO_procNo = 81
writeThread 81 on CPU 209
APIO_procNo = 82
writeThread 82 on CPU 210
APIO_procNo = 83
writeThread 83 on CPU 211
APIO_procNo = 84
writeThread 84 on CPU 212
APIO_procNo = 85
APIO_procNo = 86
writeThread 86 on CPU 214
writeThread 87 on CPU 215
writeThread 88 on CPU 216
writeThread 89 on CPU 217
writeThread 90 on CPU 218
writeThread 91 on CPU 219
writeThread 92 on CPU 220
writeThread 93 on CPU 221
writeThread 94 on CPU 222
writeThread 95 on CPU 223
writeThread 96 on CPU 224
writeThread 97 on CPU 225
writeThread 98 on CPU 226
writeThread 99 on CPU 227
writeThread 100 on CPU 228
writeThread 101 on CPU 229
writeThread 102 on CPU 230
writeThread 103 on CPU 231
writeThread 104 on CPU 232
writeThread 105 on CPU 233
writeThread 106 on CPU 234
writeThread 107 on CPU 235
writeThread 108 on CPU 236
writeThread 109 on CPU 237
writeThread 110 on CPU 238
writeThread 111 on CPU 239
writeThread 0 on CPU 128
writeThread 85 on CPU 213
Courant Number mean: 4.134521852246524e-11 max: 2.085039370078742e-05

Starting time loop

Courant Number mean: 4.134521852246524e-11 max: 2.085039370078742e-05
deltaT = 1.2e-09
Time = 1.2e-09

PIMPLE: iteration 1
diagonal:  Solving for rho, Initial residual = 0, Final residual = 0, No Iterations 0
DILUPBiCG:  Solving for Ux, Initial residual = 1, Final residual = 2.639924078088481e-20, No Iterations 2
DILUPBiCG:  Solving for Uy, Initial residual = 1, Final residual = 2.254784063702872e-20, No Iterations 2
DILUPBiCG:  Solving for Uz, Initial residual = 1, Final residual = 3.344178158606004e-20, No Iterations 2
DILUPBiCG:  Solving for e, Initial residual = 0.9999990154463813, Final residual = 1.345063698059839e-19, No Iterations 2
DILUPBiCG:  Solving for p, Initial residual = 0.9999996205957136, Final residual = 1.001701755037808e-09, No Iterations 1
pEqnloop: 0
diagonal:  Solving for rho, Initial residual = 0, Final residual = 0, No Iterations 0
time step continuity errors : sum local = 2.43875891314751e-16, global = -2.432408094003225e-16, cumulative = -2.432408094003225e-16
DILUPBiCG:  Solving for p, Initial residual = 1.178829850555843e-07, Final residual = 1.691651338024408e-16, No Iterations 1
pEqnloop: 1
diagonal:  Solving for rho, Initial residual = 0, Final residual = 0, No Iterations 0
time step continuity errors : sum local = 2.663657914345553e-16, global = -2.653513082605407e-16, cumulative = -5.085921176608632e-16
DILUPBiCG:  Solving for k, Initial residual = 0.9999999931410708, Final residual = 3.345413575124241e-20, No Iterations 2
ExecutionTime = 7.63 s  ClockTime = 10 s

APIO_IO_STEP = 1.359459023000001
Courant Number mean: 4.961451094381343e-11 max: 2.501990921293872e-05
deltaT = 1.44e-09
Time = 2.64e-09

PIMPLE: iteration 1
diagonal:  Solving for rho, Initial residual = 0, Final residual = 0, No Iterations 0
DILUPBiCG:  Solving for Ux, Initial residual = 0.3749195240690024, Final residual = 6.00543090851572e-21, No Iterations 2
DILUPBiCG:  Solving for Uy, Initial residual = 0.374919524068507, Final residual = 5.131910761420529e-21, No Iterations 2
DILUPBiCG:  Solving for Uz, Initial residual = 0.2307601757169471, Final residual = 4.694124054761104e-21, No Iterations 2
DILUPBiCG:  Solving for e, Initial residual = 0.2307512303290673, Final residual = 1.883263832134608e-20, No Iterations 2
DILUPBiCG:  Solving for p, Initial residual = 0.2307584315135112, Final residual = 1.393715784703174e-10, No Iterations 1
pEqnloop: 0
diagonal:  Solving for rho, Initial residual = 0, Final residual = 0, No Iterations 0
time step continuity errors : sum local = 5.554305339448701e-16, global = -5.552580564515744e-16, cumulative = -1.063850174112438e-15
DILUPBiCG:  Solving for p, Initial residual = 7.804992198160182e-08, Final residual = 1.097543128941476e-14, No Iterations 1
pEqnloop: 1
diagonal:  Solving for rho, Initial residual = 0, Final residual = 0, No Iterations 0
time step continuity errors : sum local = 4.797842623589931e-16, global = -4.797796210782547e-16, cumulative = -1.543629795190692e-15
DILUPBiCG:  Solving for k, Initial residual = 0.7612500408909878, Final residual = 1.550583112525444e-20, No Iterations 2
ExecutionTime = 16.11 s  ClockTime = 19 s

APIO_IO_STEP = 0.7417608949999988
Courant Number mean: 5.953777282911772e-11 max: 3.002308059560314e-05
deltaT = 1.728e-09
Time = 4.368e-09

PIMPLE: iteration 1
diagonal:  Solving for rho, Initial residual = 0, Final residual = 0, No Iterations 0
DILUPBiCG:  Solving for Ux, Initial residual = 0.3231077183020585, Final residual = 7.590906209592496e-21, No Iterations 2
DILUPBiCG:  Solving for Uy, Initial residual = 0.3231077182499963, Final residual = 6.496841559788537e-21, No Iterations 2
DILUPBiCG:  Solving for Uz, Initial residual = 0.1406145040463068, Final residual = 4.225048612053697e-21, No Iterations 2
DILUPBiCG:  Solving for e, Initial residual = 0.1406066190024953, Final residual = 1.682770239557723e-20, No Iterations 2
DILUPBiCG:  Solving for p, Initial residual = 0.1406128476352539, Final residual = 1.223034640908917e-10, No Iterations 1
pEqnloop: 0
diagonal:  Solving for rho, Initial residual = 0, Final residual = 0, No Iterations 0
time step continuity errors : sum local = 6.634373735571679e-16, global = -6.631501884513237e-16, cumulative = -2.206779983642016e-15
DILUPBiCG:  Solving for p, Initial residual = 5.021004570763373e-08, Final residual = 5.993480666763555e-14, No Iterations 1
pEqnloop: 1
diagonal:  Solving for rho, Initial residual = 0, Final residual = 0, No Iterations 0
time step continuity errors : sum local = 6.450252370648677e-16, global = -6.450249323343143e-16, cumulative = -2.85180491597633e-15
DILUPBiCG:  Solving for k, Initial residual = 0.5223926727421633, Final residual = 1.574213934051796e-20, No Iterations 2
ExecutionTime = 27.92 s  ClockTime = 34 s

APIO_IO_STEP = 3.453561255000001
Courant Number mean: 7.144584772668947e-11 max: 3.602653054273846e-05
deltaT = 2.0736e-09
Time = 6.4416e-09

PIMPLE: iteration 1
diagonal:  Solving for rho, Initial residual = 0, Final residual = 0, No Iterations 0
DILUPBiCG:  Solving for Ux, Initial residual = 0.2861774468456875, Final residual = 1.000520390094698e-20, No Iterations 2
DILUPBiCG:  Solving for Uy, Initial residual = 0.2861774467702855, Final residual = 8.586789872292014e-21, No Iterations 2
DILUPBiCG:  Solving for Uz, Initial residual = 0.1060780689588382, Final residual = 4.802048964315169e-21, No Iterations 2
DILUPBiCG:  Solving for e, Initial residual = 0.1060690419121323, Final residual = 1.888424735280107e-20, No Iterations 2
DILUPBiCG:  Solving for p, Initial residual = 0.1060760693888834, Final residual = 1.32874770435626e-10, No Iterations 1
pEqnloop: 0
diagonal:  Solving for rho, Initial residual = 0, Final residual = 0, No Iterations 0
time step continuity errors : sum local = 3.529406615998897e-16, global = -3.491759500204243e-16, cumulative = -3.200980865996755e-15
DILUPBiCG:  Solving for p, Initial residual = 3.579457756489838e-08, Final residual = 6.084163203191472e-13, No Iterations 1
pEqnloop: 1
diagonal:  Solving for rho, Initial residual = 0, Final residual = 0, No Iterations 0
time step continuity errors : sum local = 3.780884801990822e-16, global = -3.77334084552851e-16, cumulative = -3.578314950549606e-15
DILUPBiCG:  Solving for k, Initial residual = 0.3755564138248063, Final residual = 1.709716363327473e-20, No Iterations 2
ExecutionTime = 35.89 s  ClockTime = 44 s

APIO_IO_STEP = 1.631501557000007
Courant Number mean: 8.573577152556018e-11 max: 4.323015923841612e-05
deltaT = 2.48832e-09
Time = 8.92992e-09

PIMPLE: iteration 1
diagonal:  Solving for rho, Initial residual = 0, Final residual = 0, No Iterations 0
DILUPBiCG:  Solving for Ux, Initial residual = 0.2580115697801917, Final residual = 1.362979388180987e-20, No Iterations 2
DILUPBiCG:  Solving for Uy, Initial residual = 0.2580115699027461, Final residual = 1.17440113969485e-20, No Iterations 2
DILUPBiCG:  Solving for Uz, Initial residual = 0.08805286406023961, Final residual = 6.128707842230052e-21, No Iterations 2
DILUPBiCG:  Solving for e, Initial residual = 0.08804226229667833, Final residual = 2.367487776471861e-20, No Iterations 2
DILUPBiCG:  Solving for p, Initial residual = 0.08805034165273992, Final residual = 1.588481642836328e-10, No Iterations 1
pEqnloop: 0
diagonal:  Solving for rho, Initial residual = 0, Final residual = 0, No Iterations 0
time step continuity errors : sum local = 1.231932157018078e-16, global = -4.885041151743437e-17, cumulative = -3.627165362067041e-15
DILUPBiCG:  Solving for p, Initial residual = 2.006777237656646e-08, Final residual = 3.0520458328385e-14, No Iterations 1
pEqnloop: 1
diagonal:  Solving for rho, Initial residual = 0, Final residual = 0, No Iterations 0
time step continuity errors : sum local = 1.124501861714714e-16, global = -3.11533018347707e-17, cumulative = -3.658318663901811e-15
DILUPBiCG:  Solving for k, Initial residual = 0.2906877194056358, Final residual = 2.043430002904453e-20, No Iterations 2
ExecutionTime = 44.62 s  ClockTime = 55 s

APIO_IO_STEP = 1.546694713999997
Courant Number mean: 1.028840212228016e-10 max: 5.187377896431863e-05
deltaT = 2.985983999999999e-09
Time = 1.19159e-08

PIMPLE: iteration 1
diagonal:  Solving for rho, Initial residual = 0, Final residual = 0, No Iterations 0
DILUPBiCG:  Solving for Ux, Initial residual = 0.2369027230041412, Final residual = 1.921411260802196e-20, No Iterations 2
DILUPBiCG:  Solving for Uy, Initial residual = 0.2369027231038562, Final residual = 1.664136457161056e-20, No Iterations 2
DILUPBiCG:  Solving for Uz, Initial residual = 0.07712864145518979, Final residual = 8.426648450709821e-21, No Iterations 2
DILUPBiCG:  Solving for e, Initial residual = 0.07711582276417007, Final residual = 3.18270412206649e-20, No Iterations 2
DILUPBiCG:  Solving for p, Initial residual = 0.07712531762045287, Final residual = 2.003971779364559e-10, No Iterations 1
pEqnloop: 0
diagonal:  Solving for rho, Initial residual = 0, Final residual = 0, No Iterations 0
time step continuity errors : sum local = 3.644495257298865e-16, global = 3.628427752856298e-16, cumulative = -3.295475888616181e-15
DILUPBiCG:  Solving for p, Initial residual = 1.318811635417309e-08, Final residual = 2.574946919378019e-14, No Iterations 1
pEqnloop: 1
diagonal:  Solving for rho, Initial residual = 0, Final residual = 0, No Iterations 0
time step continuity errors : sum local = 3.772198338653723e-16, global = 3.716243011234145e-16, cumulative = -2.923851587492767e-15
DILUPBiCG:  Solving for k, Initial residual = 0.2385158222478609, Final residual = 2.64871861274241e-20, No Iterations 2
ExecutionTime = 55.44 s  ClockTime = 67 s

APIO_IO_STEP = 1.491800077000008
Courant Number mean: 1.234624193975351e-10 max: 6.224506732903098e-05
deltaT = 3.583180799999999e-09
Time = 1.54991e-08

PIMPLE: iteration 1
diagonal:  Solving for rho, Initial residual = 0, Final residual = 0, No Iterations 0
DILUPBiCG:  Solving for Ux, Initial residual = 0.2210519478823927, Final residual = 2.799401566223772e-20, No Iterations 2
DILUPBiCG:  Solving for Uy, Initial residual = 0.2210519478593141, Final residual = 2.43989936703415e-20, No Iterations 2
DILUPBiCG:  Solving for Uz, Initial residual = 0.06989951241205913, Final residual = 1.224359919844978e-20, No Iterations 2
DILUPBiCG:  Solving for e, Initial residual = 0.06988417021090514, Final residual = 4.503306079703186e-20, No Iterations 2
DILUPBiCG:  Solving for p, Initial residual = 0.06989549236983275, Final residual = 2.61581202882369e-10, No Iterations 1
pEqnloop: 0
diagonal:  Solving for rho, Initial residual = 0, Final residual = 0, No Iterations 0
time step continuity errors : sum local = 3.23089525913408e-16, global = 3.211741068600451e-16, cumulative = -2.602677480632722e-15
DILUPBiCG:  Solving for p, Initial residual = 1.02375506041762e-08, Final residual = 1.803298718853711e-14, No Iterations 1
pEqnloop: 1
diagonal:  Solving for rho, Initial residual = 0, Final residual = 0, No Iterations 0
time step continuity errors : sum local = 3.142567526035129e-16, global = 3.131950244745471e-16, cumulative = -2.289482456158175e-15
DILUPBiCG:  Solving for k, Initial residual = 0.2042783053773305, Final residual = 3.670272229521666e-20, No Iterations 2
ExecutionTime = 66.78 s  ClockTime = 81 s

APIO_IO_STEP = 2.076750613000016
Courant Number mean: 1.481572278482188e-10 max: 7.468909815230524e-05
deltaT = 4.299816959999999e-09
Time = 1.97989e-08

PIMPLE: iteration 1
diagonal:  Solving for rho, Initial residual = 0, Final residual = 0, No Iterations 0
DILUPBiCG:  Solving for Ux, Initial residual = 0.2090173760621097, Final residual = 4.207002064909797e-20, No Iterations 2
DILUPBiCG:  Solving for Uy, Initial residual = 0.2090173760074334, Final residual = 3.693733285412834e-20, No Iterations 2
DILUPBiCG:  Solving for Uz, Initial residual = 0.06483314997434571, Final residual = 1.860329773516045e-20, No Iterations 2
DILUPBiCG:  Solving for e, Initial residual = 0.06481487310129802, Final residual = 6.642340417864465e-20, No Iterations 2
DILUPBiCG:  Solving for p, Initial residual = 0.06482828674315883, Final residual = 3.494682425838765e-10, No Iterations 1
pEqnloop: 0
diagonal:  Solving for rho, Initial residual = 0, Final residual = 0, No Iterations 0
time step continuity errors : sum local = 1.403662004268576e-16, global = -6.840845202593217e-17, cumulative = -2.357890908184107e-15
DILUPBiCG:  Solving for p, Initial residual = 8.90541275653687e-09, Final residual = 1.704811077562396e-14, No Iterations 1
pEqnloop: 1
diagonal:  Solving for rho, Initial residual = 0, Final residual = 0, No Iterations 0
time step continuity errors : sum local = 1.369107141802842e-16, global = -8.629648124436101e-17, cumulative = -2.444187389428468e-15
DILUPBiCG:  Solving for k, Initial residual = 0.180590997602528, Final residual = 5.38267424591123e-20, No Iterations 2
ExecutionTime = 77.38 s  ClockTime = 93 s

APIO_IO_STEP = 0.877955146000005
Courant Number mean: 1.777920721975943e-10 max: 8.961976116517039e-05
deltaT = 5.159780351999998e-09
Time = 2.49587e-08

PIMPLE: iteration 1
diagonal:  Solving for rho, Initial residual = 0, Final residual = 0, No Iterations 0
DILUPBiCG:  Solving for Ux, Initial residual = 0.1997579948831169, Final residual = 6.509033887128096e-20, No Iterations 2
DILUPBiCG:  Solving for Uy, Initial residual = 0.1997579947958896, Final residual = 5.761792338920285e-20, No Iterations 2
DILUPBiCG:  Solving for Uz, Initial residual = 0.06113782169705611, Final residual = 2.937237204694702e-20, No Iterations 2
DILUPBiCG:  Solving for e, Initial residual = 0.06111598145198496, Final residual = 1.015946669153114e-19, No Iterations 2
DILUPBiCG:  Solving for p, Initial residual = 0.06113200416115958, Final residual = 4.747059380738456e-10, No Iterations 1
pEqnloop: 0
diagonal:  Solving for rho, Initial residual = 0, Final residual = 0, No Iterations 0
time step continuity errors : sum local = 2.872057918704623e-16, global = -2.784791644232002e-16, cumulative = -2.722666553851669e-15
DILUPBiCG:  Solving for p, Initial residual = 6.133250906688442e-09, Final residual = 1.289578051661094e-14, No Iterations 1
pEqnloop: 1
diagonal:  Solving for rho, Initial residual = 0, Final residual = 0, No Iterations 0
time step continuity errors : sum local = 2.795008439244061e-16, global = -2.751455762594751e-16, cumulative = -2.997812130111144e-15
DILUPBiCG:  Solving for k, Initial residual = 0.1635155365054316, Final residual = 8.298880140566765e-20, No Iterations 2
ExecutionTime = 85.89 s  ClockTime = 103 s

APIO_IO_STEP = 1.264184911000001
Courant Number mean: 2.133554705014447e-10 max: 0.000107533439730967
deltaT = 6.191736422399998e-09
Time = 3.11504e-08

PIMPLE: iteration 1
diagonal:  Solving for rho, Initial residual = 0, Final residual = 0, No Iterations 0
DILUPBiCG:  Solving for Ux, Initial residual = 0.192542016315399, Final residual = 1.034939731988976e-19, No Iterations 2
DILUPBiCG:  Solving for Uy, Initial residual = 0.19254201625002, Final residual = 9.241552425470269e-20, No Iterations 2
DILUPBiCG:  Solving for Uz, Initial residual = 0.05836292826105106, Final residual = 4.798358387367818e-20, No Iterations 2
DILUPBiCG:  Solving for e, Initial residual = 0.05833680913330457, Final residual = 1.606491673915891e-19, No Iterations 2
DILUPBiCG:  Solving for p, Initial residual = 0.05835595365233993, Final residual = 6.528089363379868e-10, No Iterations 1
pEqnloop: 0
diagonal:  Solving for rho, Initial residual = 0, Final residual = 0, No Iterations 0
time step continuity errors : sum local = 5.227692541367669e-16, global = -5.066871812551858e-16, cumulative = -3.504499311366329e-15
DILUPBiCG:  Solving for p, Initial residual = 4.293098364855393e-09, Final residual = 1.056153633612257e-14, No Iterations 1
pEqnloop: 1
diagonal:  Solving for rho, Initial residual = 0, Final residual = 0, No Iterations 0
time step continuity errors : sum local = 5.240560199173232e-16, global = -5.212896407977176e-16, cumulative = -4.025788952164047e-15
DILUPBiCG:  Solving for k, Initial residual = 0.150805822658359, Final residual = 1.338856494101402e-19, No Iterations 2
ExecutionTime = 94.48999999999999 s  ClockTime = 114 s

APIO_IO_STEP = 2.070392245999999
Courant Number mean: 2.560338970675834e-10 max: 0.0001290253889150598
deltaT = 7.430083706879997e-09
Time = 3.85805e-08

PIMPLE: iteration 1
diagonal:  Solving for rho, Initial residual = 0, Final residual = 0, No Iterations 0
DILUPBiCG:  Solving for Ux, Initial residual = 0.1868538217650146, Final residual = 1.687932437216124e-19, No Iterations 2
DILUPBiCG:  Solving for Uy, Initial residual = 0.1868538217155466, Final residual = 1.520784945525224e-19, No Iterations 2
DILUPBiCG:  Solving for Uz, Initial residual = 0.05623297147315788, Final residual = 8.084418313203376e-20, No Iterations 2
DILUPBiCG:  Solving for e, Initial residual = 0.05620172103624526, Final residual = 2.621664557307782e-19, No Iterations 2
DILUPBiCG:  Solving for p, Initial residual = 0.0562246373242394, Final residual = 9.061714816348263e-10, No Iterations 1
pEqnloop: 0
diagonal:  Solving for rho, Initial residual = 0, Final residual = 0, No Iterations 0
time step continuity errors : sum local = 2.666073364560763e-16, global = 2.312912571235778e-16, cumulative = -3.794497695040469e-15
DILUPBiCG:  Solving for p, Initial residual = 5.48765184236319e-09, Final residual = 1.559620067244409e-14, No Iterations 1
pEqnloop: 1
diagonal:  Solving for rho, Initial residual = 0, Final residual = 0, No Iterations 0
time step continuity errors : sum local = 2.045678937310969e-16, global = 1.750815442783814e-16, cumulative = -3.619416150762088e-15
DILUPBiCG:  Solving for k, Initial residual = 0.1411037708907841, Final residual = 2.252319185663759e-19, No Iterations 2
ExecutionTime = 105.65 s  ClockTime = 128 s

APIO_IO_STEP = 2.502316087999972
Courant Number mean: 3.072515049215036e-10 max: 0.0001548093385833503
deltaT = 8.916100448255996e-09
Time = 4.74966e-08

PIMPLE: iteration 1
diagonal:  Solving for rho, Initial residual = 0, Final residual = 0, No Iterations 0
DILUPBiCG:  Solving for Ux, Initial residual = 0.1823252199969294, Final residual = 2.850319093743731e-19, No Iterations 2
DILUPBiCG:  Solving for Uy, Initial residual = 0.1823252199274536, Final residual = 2.606153628932731e-19, No Iterations 2
DILUPBiCG:  Solving for Uz, Initial residual = 0.0545699297191502, Final residual = 1.400850077973153e-19, No Iterations 2
DILUPBiCG:  Solving for e, Initial residual = 0.05453252298385763, Final residual = 4.410455869310454e-19, No Iterations 2
DILUPBiCG:  Solving for p, Initial residual = 0.05455995735751366, Final residual = 1.267026854519408e-09, No Iterations 1
pEqnloop: 0
diagonal:  Solving for rho, Initial residual = 0, Final residual = 0, No Iterations 0
time step continuity errors : sum local = 1.707826692254097e-16, global = -6.944882541596823e-17, cumulative = -3.688864976178057e-15
DILUPBiCG:  Solving for p, Initial residual = 5.40431651504848e-09, Final residual = 1.801227457061358e-14, No Iterations 1
pEqnloop: 1
diagonal:  Solving for rho, Initial residual = 0, Final residual = 0, No Iterations 0
time step continuity errors : sum local = 1.540732499213446e-16, global = -1.102738588098064e-16, cumulative = -3.799138834987863e-15
DILUPBiCG:  Solving for k, Initial residual = 0.1335467959429217, Final residual = 3.939656315342438e-19, No Iterations 2
ExecutionTime = 112.99 s  ClockTime = 139 s

APIO_IO_STEP = 3.878744434999987
Courant Number mean: 3.687178649884423e-10 max: 0.0001857409471672458
deltaT = 1.069932053790719e-08
Time = 5.81959e-08

PIMPLE: iteration 1
diagonal:  Solving for rho, Initial residual = 0, Final residual = 0, No Iterations 0
DILUPBiCG:  Solving for Ux, Initial residual = 0.1786887649190018, Final residual = 5.014783760890287e-19, No Iterations 2
DILUPBiCG:  Solving for Uy, Initial residual = 0.1786887648684836, Final residual = 4.621972812459794e-19, No Iterations 2
DILUPBiCG:  Solving for Uz, Initial residual = 0.05325359145778604, Final residual = 2.489955681929707e-19, No Iterations 2
DILUPBiCG:  Solving for e, Initial residual = 0.05320880615026282, Final residual = 7.642406148043247e-19, No Iterations 2
DILUPBiCG:  Solving for p, Initial residual = 0.05324165661861623, Final residual = 1.781744051846622e-09, No Iterations 1
pEqnloop: 0
diagonal:  Solving for rho, Initial residual = 0, Final residual = 0, No Iterations 0
time step continuity errors : sum local = 2.014047902683259e-16, global = -8.582086690093388e-17, cumulative = -3.884959701888797e-15
DILUPBiCG:  Solving for p, Initial residual = 4.269902675759885e-09, Final residual = 1.67876724519653e-14, No Iterations 1
pEqnloop: 1
diagonal:  Solving for rho, Initial residual = 0, Final residual = 0, No Iterations 0
time step continuity errors : sum local = 1.518540671197818e-16, global = -1.21744660939871e-16, cumulative = -4.006704362828668e-15
DILUPBiCG:  Solving for k, Initial residual = 0.1275639042342499, Final residual = 7.146347110394086e-19, No Iterations 2
ExecutionTime = 124.74 s  ClockTime = 152 s

APIO_IO_STEP = 1.099588850000004
Courant Number mean: 4.424853672511335e-10 max: 0.0002228458487620226
deltaT = 1.283918464548863e-08
Time = 7.10351e-08

PIMPLE: iteration 1
diagonal:  Solving for rho, Initial residual = 0, Final residual = 0, No Iterations 0
DILUPBiCG:  Solving for Ux, Initial residual = 0.1757467247307286, Final residual = 9.060547330969286e-19, No Iterations 2
DILUPBiCG:  Solving for Uy, Initial residual = 0.1757467247044863, Final residual = 8.410476093355625e-19, No Iterations 2
DILUPBiCG:  Solving for Uz, Initial residual = 0.05219981725029835, Final residual = 4.528110677783339e-19, No Iterations 2
DILUPBiCG:  Solving for e, Initial residual = 0.05214614982764323, Final residual = 1.36292126632334e-18, No Iterations 2
DILUPBiCG:  Solving for p, Initial residual = 0.05218555297451068, Final residual = 2.517040702504814e-09, No Iterations 1
pEqnloop: 0
diagonal:  Solving for rho, Initial residual = 0, Final residual = 0, No Iterations 0
time step continuity errors : sum local = 5.301704132691794e-16, global = -4.116858419445307e-16, cumulative = -4.418390204773199e-15
DILUPBiCG:  Solving for p, Initial residual = 4.172785950203967e-09, Final residual = 1.944101498208648e-14, No Iterations 1
pEqnloop: 1
diagonal:  Solving for rho, Initial residual = 0, Final residual = 0, No Iterations 0
time step continuity errors : sum local = 4.291287886753849e-16, global = -4.290832080170784e-16, cumulative = -4.847473412790278e-15
DILUPBiCG:  Solving for k, Initial residual = 0.12276367930723, Final residual = 1.340914250141343e-18, No Iterations 2
ExecutionTime = 136.35 s  ClockTime = 167 s

APIO_IO_STEP = 2.576437959999993
Courant Number mean: 5.310182840479397e-10 max: 0.0002673531757326263
deltaT = 1.540702157458636e-08
Time = 8.64421e-08

PIMPLE: iteration 1
diagonal:  Solving for rho, Initial residual = 0, Final residual = 0, No Iterations 0
DILUPBiCG:  Solving for Ux, Initial residual = 0.1733503985826846, Final residual = 1.664609435902579e-18, No Iterations 2
DILUPBiCG:  Solving for Uy, Initial residual = 0.1733503985883182, Final residual = 1.56068359908665e-18, No Iterations 2
DILUPBiCG:  Solving for Uz, Initial residual = 0.05134793187277174, Final residual = 8.402306605091103e-19, No Iterations 2
DILUPBiCG:  Solving for e, Initial residual = 0.05128367465408561, Final residual = 2.499324623416376e-18, No Iterations 2
DILUPBiCG:  Solving for p, Initial residual = 0.05133091610723997, Final residual = 3.568960421023207e-09, No Iterations 1
pEqnloop: 0
diagonal:  Solving for rho, Initial residual = 0, Final residual = 0, No Iterations 0
time step continuity errors : sum local = 4.047237562754909e-16, global = 2.671385920961576e-16, cumulative = -4.58033482069412e-15
DILUPBiCG:  Solving for p, Initial residual = 5.116895631949929e-09, Final residual = 2.83372048388601e-14, No Iterations 1
pEqnloop: 1
diagonal:  Solving for rho, Initial residual = 0, Final residual = 0, No Iterations 0
time step continuity errors : sum local = 2.411413958529219e-16, global = 2.334574157522024e-16, cumulative = -4.346877404941918e-15
DILUPBiCG:  Solving for k, Initial residual = 0.1188696863729472, Final residual = 2.595896870857964e-18, No Iterations 2
ExecutionTime = 146.32 s  ClockTime = 179 s

APIO_IO_STEP = 1.06017516600005
Courant Number mean: 6.372759377271622e-10 max: 0.0003207356037221298
deltaT = 1.848842588950363e-08
Time = 1.04931e-07

PIMPLE: iteration 1
diagonal:  Solving for rho, Initial residual = 0, Final residual = 0, No Iterations 0
DILUPBiCG:  Solving for Ux, Initial residual = 0.1713861774225666, Final residual = 3.098534687557759e-18, No Iterations 2
DILUPBiCG:  Solving for Uy, Initial residual = 0.1713861774374294, Final residual = 2.931229899292347e-18, No Iterations 2
DILUPBiCG:  Solving for Uz, Initial residual = 0.05065305861546219, Final residual = 1.587748108925767e-18, No Iterations 2
DILUPBiCG:  Solving for e, Initial residual = 0.05057613450568671, Final residual = 4.70802740356841e-18, No Iterations 2
DILUPBiCG:  Solving for p, Initial residual = 0.0506327808151306, Final residual = 5.075848347263298e-09, No Iterations 1
pEqnloop: 0
diagonal:  Solving for rho, Initial residual = 0, Final residual = 0, No Iterations 0
time step continuity errors : sum local = 5.72022316618688e-16, global = 3.57614967528865e-16, cumulative = -3.989262437413053e-15
DILUPBiCG:  Solving for p, Initial residual = 6.248792795343997e-09, Final residual = 4.129763332126657e-14, No Iterations 1
pEqnloop: 1
diagonal:  Solving for rho, Initial residual = 0, Final residual = 0, No Iterations 0
time step continuity errors : sum local = 2.813446494357502e-16, global = 2.771991770635393e-16, cumulative = -3.712063260349514e-15
DILUPBiCG:  Solving for k, Initial residual = 0.1156816090490299, Final residual = 5.171307907520283e-18, No Iterations 2
ExecutionTime = 159.5 s  ClockTime = 193 s

APIO_IO_STEP = 0.9416644089999977
Courant Number mean: 7.648129722847393e-10 max: 0.0003847571616184497
deltaT = 2.218611106740435e-08
Time = 1.27117e-07

PIMPLE: iteration 1
diagonal:  Solving for rho, Initial residual = 0, Final residual = 0, No Iterations 0
DILUPBiCG:  Solving for Ux, Initial residual = 0.1697659846900436, Final residual = 5.816804560111833e-18, No Iterations 2
DILUPBiCG:  Solving for Uy, Initial residual = 0.169765984701864, Final residual = 5.549612969835552e-18, No Iterations 2
DILUPBiCG:  Solving for Uz, Initial residual = 0.05008126763533707, Final residual = 3.046934104600291e-18, No Iterations 2
DILUPBiCG:  Solving for e, Initial residual = 0.04998919218114345, Final residual = 9.098619276086554e-18, No Iterations 2
DILUPBiCG:  Solving for p, Initial residual = 0.05005712922096077, Final residual = 7.237121751580241e-09, No Iterations 1
pEqnloop: 0
diagonal:  Solving for rho, Initial residual = 0, Final residual = 0, No Iterations 0
time step continuity errors : sum local = 7.354136152475198e-16, global = -1.057243247297773e-16, cumulative = -3.81778758507929e-15
DILUPBiCG:  Solving for p, Initial residual = 7.898313102105212e-09, Final residual = 6.251131568473809e-14, No Iterations 1
pEqnloop: 1
diagonal:  Solving for rho, Initial residual = 0, Final residual = 0, No Iterations 0
time step continuity errors : sum local = 2.490649284905884e-16, global = -2.302344909028931e-16, cumulative = -4.048022075982183e-15
DILUPBiCG:  Solving for k, Initial residual = 0.1130510224538538, Final residual = 1.057264489075628e-17, No Iterations 2
ExecutionTime = 168.28 s  ClockTime = 204 s

APIO_IO_STEP = 1.863251550000001
Courant Number mean: 9.179004421142769e-10 max: 0.0004615302830703816
deltaT = 2.662333328088522e-08
Time = 1.5374e-07

PIMPLE: iteration 1
diagonal:  Solving for rho, Initial residual = 0, Final residual = 0, No Iterations 0
DILUPBiCG:  Solving for Ux, Initial residual = 0.1684205943188654, Final residual = 1.125918645710879e-17, No Iterations 2
DILUPBiCG:  Solving for Uy, Initial residual = 0.1684205943299447, Final residual = 1.07256538482031e-17, No Iterations 2
DILUPBiCG:  Solving for Uz, Initial residual = 0.04960639577116515, Final residual = 5.909553888255072e-18, No Iterations 2
DILUPBiCG:  Solving for e, Initial residual = 0.04949620267411945, Final residual = 1.801412483602798e-17, No Iterations 2
DILUPBiCG:  Solving for p, Initial residual = 0.0495777037631184, Final residual = 1.034044490686836e-08, No Iterations 1
pEqnloop: 0
diagonal:  Solving for rho, Initial residual = 0, Final residual = 0, No Iterations 0
time step continuity errors : sum local = 1.437145887017119e-15, global = -3.760651233481792e-16, cumulative = -4.424087199330362e-15
DILUPBiCG:  Solving for p, Initial residual = 1.072735781828187e-08, Final residual = 1.019471909540893e-13, No Iterations 1
pEqnloop: 1
diagonal:  Solving for rho, Initial residual = 0, Final residual = 0, No Iterations 0
time step continuity errors : sum local = 5.877837167267159e-16, global = -5.848473331496341e-16, cumulative = -5.008934532479996e-15
DILUPBiCG:  Solving for k, Initial residual = 0.1108658386646444, Final residual = 2.212519778015109e-17, No Iterations 2
ExecutionTime = 177.47 s  ClockTime = 215 s

APIO_IO_STEP = 2.179536538000036
Courant Number mean: 1.101672360569821e-09 max: 0.0005535838593398171
deltaT = 3.194799993706226e-08
Time = 1.85688e-07

PIMPLE: iteration 1
diagonal:  Solving for rho, Initial residual = 0, Final residual = 0, No Iterations 0
DILUPBiCG:  Solving for Ux, Initial residual = 0.1672948891413144, Final residual = 2.490360239024139e-17, No Iterations 2
DILUPBiCG:  Solving for Uy, Initial residual = 0.1672948891492007, Final residual = 2.397937134569046e-17, No Iterations 2
DILUPBiCG:  Solving for Uz, Initial residual = 0.04920787829663138, Final residual = 1.153524155102165e-17, No Iterations 2
DILUPBiCG:  Solving for e, Initial residual = 0.04907605863750711, Final residual = 3.648070022947781e-17, No Iterations 2
DILUPBiCG:  Solving for p, Initial residual = 0.04917384490322646, Final residual = 1.480111173526482e-08, No Iterations 1
pEqnloop: 0
diagonal:  Solving for rho, Initial residual = 0, Final residual = 0, No Iterations 0
time step continuity errors : sum local = 1.590965595561781e-15, global = 3.397122387791045e-16, cumulative = -4.669222293700892e-15
DILUPBiCG:  Solving for p, Initial residual = 1.423174698863787e-08, Final residual = 1.629648980776797e-13, No Iterations 1
pEqnloop: 1
diagonal:  Solving for rho, Initial residual = 0, Final residual = 0, No Iterations 0
time step continuity errors : sum local = 1.144250435919015e-16, global = -4.73676329738498e-17, cumulative = -4.716589926674742e-15
DILUPBiCG:  Solving for k, Initial residual = 0.1090398956998024, Final residual = 4.727040394256982e-17, No Iterations 2
ExecutionTime = 184.44 s  ClockTime = 226 s

APIO_IO_STEP = 2.911167616999933
Courant Number mean: 1.322303588064044e-09 max: 0.0006639444024474661
deltaT = 3.833759992447472e-08
Time = 2.24026e-07

PIMPLE: iteration 1
diagonal:  Solving for rho, Initial residual = 0, Final residual = 0, No Iterations 0
DILUPBiCG:  Solving for Ux, Initial residual = 0.1663444151196875, Final residual = 5.921313960466781e-17, No Iterations 2
DILUPBiCG:  Solving for Uy, Initial residual = 0.1663444151234575, Final residual = 5.754983534155641e-17, No Iterations 2
DILUPBiCG:  Solving for Uz, Initial residual = 0.04886928998827306, Final residual = 2.265590966556396e-17, No Iterations 2
DILUPBiCG:  Solving for e, Initial residual = 0.04871167217296136, Final residual = 7.543671923731064e-17, No Iterations 2
DILUPBiCG:  Solving for p, Initial residual = 0.04882900381816295, Final residual = 2.121919456232829e-08, No Iterations 1
pEqnloop: 0
diagonal:  Solving for rho, Initial residual = 0, Final residual = 0, No Iterations 0
time step continuity errors : sum local = 2.666763227787381e-15, global = 7.479296079029169e-16, cumulative = -3.968660318771825e-15
DILUPBiCG:  Solving for p, Initial residual = 1.989392990487857e-08, Final residual = 2.751857671541104e-13, No Iterations 1
pEqnloop: 1
diagonal:  Solving for rho, Initial residual = 0, Final residual = 0, No Iterations 0
time step continuity errors : sum local = 1.361242199045728e-16, global = 8.372763056885487e-17, cumulative = -3.88493268820297e-15
DILUPBiCG:  Solving for k, Initial residual = 0.1075059387713967, Final residual = 1.028531743604539e-16, No Iterations 2
ExecutionTime = 194.11 s  ClockTime = 239 s

APIO_IO_STEP = 3.066753801000004
Courant Number mean: 1.587226623916134e-09 max: 0.0007962328698137055
deltaT = 4.600511990936966e-08
Time = 2.70031e-07

PIMPLE: iteration 1
diagonal:  Solving for rho, Initial residual = 0, Final residual = 0, No Iterations 0
DILUPBiCG:  Solving for Ux, Initial residual = 0.1655328481694541, Final residual = 1.491040695549639e-16, No Iterations 2
DILUPBiCG:  Solving for Uy, Initial residual = 0.1655328481707227, Final residual = 1.461697050232483e-16, No Iterations 2
DILUPBiCG:  Solving for Uz, Initial residual = 0.04857727213995701, Final residual = 4.442150546228871e-17, No Iterations 2
DILUPBiCG:  Solving for e, Initial residual = 0.04838891052152414, Final residual = 1.589984450081521e-16, No Iterations 2
DILUPBiCG:  Solving for p, Initial residual = 0.04852970960213458, Final residual = 3.046261727120871e-08, No Iterations 1
pEqnloop: 0
diagonal:  Solving for rho, Initial residual = 0, Final residual = 0, No Iterations 0
time step continuity errors : sum local = 4.637597720889956e-15, global = 8.565267054437146e-16, cumulative = -3.028405982759256e-15
DILUPBiCG:  Solving for p, Initial residual = 2.838456005008999e-08, Final residual = 4.756315698935893e-13, No Iterations 1
pEqnloop: 1
diagonal:  Solving for rho, Initial residual = 0, Final residual = 0, No Iterations 0
time step continuity errors : sum local = 2.651772367576105e-16, global = -2.578248739308755e-16, cumulative = -3.286230856690131e-15
DILUPBiCG:  Solving for k, Initial residual = 0.1062108298579535, Final residual = 2.273879425911883e-16, No Iterations 2
ExecutionTime = 201.22 s  ClockTime = 248 s

APIO_IO_STEP = 1.646810705999968
Courant Number mean: 1.90539721752629e-09 max: 0.0009547802819188109
deltaT = 5.520614389124359e-08
Time = 3.25237e-07

PIMPLE: iteration 1
diagonal:  Solving for rho, Initial residual = 0, Final residual = 0, No Iterations 0
DILUPBiCG:  Solving for Ux, Initial residual = 0.1648300893902034, Final residual = 4.162068325498471e-16, No Iterations 2
DILUPBiCG:  Solving for Uy, Initial residual = 0.1648300893892541, Final residual = 4.109685396984034e-16, No Iterations 2
DILUPBiCG:  Solving for Uz, Initial residual = 0.0483207401842785, Final residual = 8.774730234875317e-17, No Iterations 2
DILUPBiCG:  Solving for e, Initial residual = 0.04809575535049417, Final residual = 3.409526164969185e-16, No Iterations 2
DILUPBiCG:  Solving for p, Initial residual = 0.0482647527715006, Final residual = 4.378805138778174e-08, No Iterations 1
pEqnloop: 0
diagonal:  Solving for rho, Initial residual = 0, Final residual = 0, No Iterations 0
time step continuity errors : sum local = 7.783407021186513e-15, global = 2.128430718749506e-15, cumulative = -1.157800137940626e-15
DILUPBiCG:  Solving for p, Initial residual = 4.073347811280112e-08, Final residual = 8.294879035516845e-13, No Iterations 1
pEqnloop: 1
diagonal:  Solving for rho, Initial residual = 0, Final residual = 0, No Iterations 0
time step continuity errors : sum local = 2.6980721769066e-16, global = 2.155109385735406e-16, cumulative = -9.422891993670852e-16
DILUPBiCG:  Solving for k, Initial residual = 0.1051120051457684, Final residual = 5.096999500633719e-16, No Iterations 2
ExecutionTime = 208.84 s  ClockTime = 257 s

APIO_IO_STEP = 1.739655184000043
Courant Number mean: 2.287622078255218e-09 max: 0.00114476605899441
deltaT = 6.62473726694923e-08
Time = 3.91484e-07

PIMPLE: iteration 1
diagonal:  Solving for rho, Initial residual = 0, Final residual = 0, No Iterations 0
DILUPBiCG:  Solving for Ux, Initial residual = 0.1642108139512202, Final residual = 1.81352664295182e-15, No Iterations 2
DILUPBiCG:  Solving for Uy, Initial residual = 0.164210813949032, Final residual = 1.803878415309153e-15, No Iterations 2
DILUPBiCG:  Solving for Uz, Initial residual = 0.04809030569387568, Final residual = 2.064215818058997e-16, No Iterations 2
DILUPBiCG:  Solving for e, Initial residual = 0.04782179770484185, Final residual = 7.424762145723359e-16, No Iterations 2
DILUPBiCG:  Solving for p, Initial residual = 0.04802468058435876, Final residual = 6.301729375518317e-08, No Iterations 1
pEqnloop: 0
diagonal:  Solving for rho, Initial residual = 0, Final residual = 0, No Iterations 0
time step continuity errors : sum local = 1.330604973931129e-14, global = 3.595407640871677e-15, cumulative = 2.653118441504592e-15
DILUPBiCG:  Solving for p, Initial residual = 5.881056344700572e-08, Final residual = 3.807151029722491e-19, No Iterations 2
pEqnloop: 1
diagonal:  Solving for rho, Initial residual = 0, Final residual = 0, No Iterations 0
time step continuity errors : sum local = 2.26389671298765e-16, global = 2.136289860170604e-16, cumulative = 2.866747427521652e-15
DILUPBiCG:  Solving for k, Initial residual = 0.1041750098998162, Final residual = 1.156190089601567e-15, No Iterations 2
ExecutionTime = 216.21 s  ClockTime = 268 s

APIO_IO_STEP = 2.990842649999934
Courant Number mean: 2.746966890377487e-09 max: 0.001372384141132362
deltaT = 7.949684720339076e-08
Time = 4.70981e-07

PIMPLE: iteration 1
diagonal:  Solving for rho, Initial residual = 0, Final residual = 0, No Iterations 0
DILUPBiCG:  Solving for Ux, Initial residual = 0.1636533488594409, Final residual = 1.144159077210771e-14, No Iterations 2
DILUPBiCG:  Solving for Uy, Initial residual = 0.1636533488566627, Final residual = 1.162614755961071e-14, No Iterations 2
DILUPBiCG:  Solving for Uz, Initial residual = 0.04787783833716284, Final residual = 6.107835551605348e-16, No Iterations 2
DILUPBiCG:  Solving for e, Initial residual = 0.04755770295817333, Final residual = 1.638942854575577e-15, No Iterations 2
DILUPBiCG:  Solving for p, Initial residual = 0.04780129783540556, Final residual = 9.079494872660658e-08, No Iterations 1
pEqnloop: 0
diagonal:  Solving for rho, Initial residual = 0, Final residual = 0, No Iterations 0
time step continuity errors : sum local = 2.282871508879602e-14, global = 6.081069201076965e-15, cumulative = 8.947816628598616e-15
DILUPBiCG:  Solving for p, Initial residual = 8.541926676805737e-08, Final residual = 1.167809368083894e-18, No Iterations 2
pEqnloop: 1
diagonal:  Solving for rho, Initial residual = 0, Final residual = 0, No Iterations 0
time step continuity errors : sum local = 1.457802724025792e-16, global = 1.218683129222097e-16, cumulative = 9.069684941520825e-15
DILUPBiCG:  Solving for k, Initial residual = 0.1033716719604457, Final residual = 2.649510417767619e-15, No Iterations 2
ExecutionTime = 224.5 s  ClockTime = 277 s

APIO_IO_STEP = 1.19079310799998
Courant Number mean: 3.299270210825531e-09 max: 0.001645043660237692
deltaT = 9.53962166440689e-08
Time = 5.66377e-07

PIMPLE: iteration 1
diagonal:  Solving for rho, Initial residual = 0, Final residual = 0, No Iterations 0
DILUPBiCG:  Solving for Ux, Initial residual = 0.1631388013980042, Final residual = 2.890282690122178e-15, No Iterations 2
DILUPBiCG:  Solving for Uy, Initial residual = 0.1631388013958706, Final residual = 2.891961564195525e-15, No Iterations 2
DILUPBiCG:  Solving for Uz, Initial residual = 0.04767612719617793, Final residual = 1.914065002261948e-15, No Iterations 2
DILUPBiCG:  Solving for e, Initial residual = 0.04729490948073262, Final residual = 3.66070795481404e-15, No Iterations 2
DILUPBiCG:  Solving for p, Initial residual = 0.04758739298786986, Final residual = 1.309659420365104e-07, No Iterations 1
pEqnloop: 0
diagonal:  Solving for rho, Initial residual = 0, Final residual = 0, No Iterations 0
time step continuity errors : sum local = 3.974104679306041e-14, global = 1.090746415399411e-14, cumulative = 1.997714909551494e-14
DILUPBiCG:  Solving for p, Initial residual = 1.243048262143268e-07, Final residual = 3.600733426757846e-18, No Iterations 2
pEqnloop: 1
diagonal:  Solving for rho, Initial residual = 0, Final residual = 0, No Iterations 0
time step continuity errors : sum local = 5.064011985211342e-16, global = 4.981807523311694e-16, cumulative = 2.047532984784611e-14
DILUPBiCG:  Solving for k, Initial residual = 0.1026787464360653, Final residual = 6.124858873778914e-15, No Iterations 2
ExecutionTime = 235.16 s  ClockTime = 290 s

APIO_IO_STEP = 1.413743520000025
Courant Number mean: 3.9638000609466e-09 max: 0.001971613580789106
deltaT = 1.144754599728827e-07
Time = 6.80853e-07

PIMPLE: iteration 1
diagonal:  Solving for rho, Initial residual = 0, Final residual = 0, No Iterations 0
DILUPBiCG:  Solving for Ux, Initial residual = 0.1626503789613427, Final residual = 1.068488044872036e-14, No Iterations 2
DILUPBiCG:  Solving for Uy, Initial residual = 0.1626503789595687, Final residual = 1.06718191126787e-14, No Iterations 2
DILUPBiCG:  Solving for Uz, Initial residual = 0.04747862115125164, Final residual = 6.790794388602707e-15, No Iterations 2
DILUPBiCG:  Solving for e, Initial residual = 0.04702535168773767, Final residual = 8.259361384296251e-15, No Iterations 2
DILUPBiCG:  Solving for p, Initial residual = 0.04737651157917284, Final residual = 1.89129804800579e-07, No Iterations 1
pEqnloop: 0
diagonal:  Solving for rho, Initial residual = 0, Final residual = 0, No Iterations 0
time step continuity errors : sum local = 6.812274255783937e-14, global = 1.811023297794197e-14, cumulative = 3.858556282578808e-14
DILUPBiCG:  Solving for p, Initial residual = 1.816591425248725e-07, Final residual = 1.118898422130352e-17, No Iterations 2
pEqnloop: 1
diagonal:  Solving for rho, Initial residual = 0, Final residual = 0, No Iterations 0
time step continuity errors : sum local = 1.805883146441812e-16, global = -1.442771044593248e-16, cumulative = 3.844128572132875e-14
DILUPBiCG:  Solving for k, Initial residual = 0.102076888228668, Final residual = 1.426520833630768e-14, No Iterations 2
ExecutionTime = 243.11 s  ClockTime = 301 s

APIO_IO_STEP = 2.28303101299997
Courant Number mean: 4.764107406340697e-09 max: 0.002362724964306313
deltaT = 1.373705519674592e-07
Time = 8.18223e-07

PIMPLE: iteration 1
diagonal:  Solving for rho, Initial residual = 0, Final residual = 0, No Iterations 0
DILUPBiCG:  Solving for Ux, Initial residual = 0.1621728690071609, Final residual = 3.380063026247915e-14, No Iterations 2
DILUPBiCG:  Solving for Uy, Initial residual = 0.1621728690055008, Final residual = 3.377188358621793e-14, No Iterations 2
DILUPBiCG:  Solving for Uz, Initial residual = 0.04727922534919114, Final residual = 4.027699447718205e-14, No Iterations 2
DILUPBiCG:  Solving for e, Initial residual = 0.0467412674203487, Final residual = 1.879432447990962e-14, No Iterations 2
DILUPBiCG:  Solving for p, Initial residual = 0.04716279865342386, Final residual = 2.734565400331298e-07, No Iterations 1
pEqnloop: 0
diagonal:  Solving for rho, Initial residual = 0, Final residual = 0, No Iterations 0
time step continuity errors : sum local = 1.179918008155082e-13, global = 3.242136450307593e-14, cumulative = 7.086265022440468e-14
DILUPBiCG:  Solving for p, Initial residual = 2.663753619285214e-07, Final residual = 3.503231159271183e-17, No Iterations 2
pEqnloop: 1
diagonal:  Solving for rho, Initial residual = 0, Final residual = 0, No Iterations 0
time step continuity errors : sum local = 2.758786578327824e-16, global = 2.657659289675624e-16, cumulative = 7.112841615337223e-14
DILUPBiCG:  Solving for k, Initial residual = 0.1015499011533258, Final residual = 3.343992559674283e-14, No Iterations 2
ExecutionTime = 250.39 s  ClockTime = 313 s

APIO_IO_STEP = 4.804026403999956
Courant Number mean: 5.729157945668538e-09 max: 0.002831151431733648
deltaT = 1.64844662360951e-07
Time = 9.83068e-07

PIMPLE: iteration 1
diagonal:  Solving for rho, Initial residual = 0, Final residual = 0, No Iterations 0
DILUPBiCG:  Solving for Ux, Initial residual = 0.1616922641904028, Final residual = 1.078305847267702e-13, No Iterations 2
DILUPBiCG:  Solving for Uy, Initial residual = 0.1616922641891627, Final residual = 1.077754092252012e-13, No Iterations 2
DILUPBiCG:  Solving for Uz, Initial residual = 0.0470721931080272, Final residual = 9.963669270825182e-14, No Iterations 2
DILUPBiCG:  Solving for e, Initial residual = 0.04643511540488716, Final residual = 4.306331218450385e-14, No Iterations 2
DILUPBiCG:  Solving for p, Initial residual = 0.04694093756835125, Final residual = 3.958904947661507e-07, No Iterations 1
pEqnloop: 0
diagonal:  Solving for rho, Initial residual = 0, Final residual = 0, No Iterations 0
time step continuity errors : sum local = 2.043135184698874e-13, global = 5.701848070777576e-14, cumulative = 1.28146896861148e-13
DILUPBiCG:  Solving for p, Initial residual = 3.916608099070994e-07, Final residual = 1.10514564414383e-16, No Iterations 2
pEqnloop: 1
diagonal:  Solving for rho, Initial residual = 0, Final residual = 0, No Iterations 0
time step continuity errors : sum local = 2.008970586455186e-16, global = 1.919116570686462e-16, cumulative = 1.283388085182166e-13
DILUPBiCG:  Solving for k, Initial residual = 0.1010841810074733, Final residual = 7.883075074372537e-14, No Iterations 2
ExecutionTime = 258.7 s  ClockTime = 323 s

APIO_IO_STEP = 1.039627134
Courant Number mean: 6.894866665667875e-09 max: 0.003392299833723769
deltaT = 1.978135948331412e-07
Time = 1.18088e-06

PIMPLE: iteration 1
diagonal:  Solving for rho, Initial residual = 0, Final residual = 0, No Iterations 0
DILUPBiCG:  Solving for Ux, Initial residual = 0.1611955304390672, Final residual = 3.363443394576619e-13, No Iterations 2
DILUPBiCG:  Solving for Uy, Initial residual = 0.1611955304379624, Final residual = 3.362432344743347e-13, No Iterations 2
DILUPBiCG:  Solving for Uz, Initial residual = 0.04685203757392611, Final residual = 8.106693646983987e-14, No Iterations 2
DILUPBiCG:  Solving for e, Initial residual = 0.04609956089113901, Final residual = 9.922960008463301e-14, No Iterations 2
DILUPBiCG:  Solving for p, Initial residual = 0.04670615228256952, Final residual = 5.739304827878357e-07, No Iterations 1
pEqnloop: 0
diagonal:  Solving for rho, Initial residual = 0, Final residual = 0, No Iterations 0
time step continuity errors : sum local = 3.545344687161028e-13, global = 1.000499378993398e-13, cumulative = 2.283887464175565e-13
DILUPBiCG:  Solving for p, Initial residual = 5.773086682109839e-07, Final residual = 3.514527286068528e-16, No Iterations 2
pEqnloop: 1
diagonal:  Solving for rho, Initial residual = 0, Final residual = 0, No Iterations 0
time step continuity errors : sum local = 5.778264738855159e-16, global = -5.755141435093879e-16, cumulative = 2.278132322740471e-13
DILUPBiCG:  Solving for k, Initial residual = 0.1006682619337617, Final residual = 1.867583804629137e-13, No Iterations 2
ExecutionTime = 266.54 s  ClockTime = 332 s

APIO_IO_STEP = 0.9631669369999827
Courant Number mean: 8.306228051021503e-09 max: 0.004064862143466259
deltaT = 2.373763137997695e-07
Time = 1.41826e-06

PIMPLE: iteration 1
diagonal:  Solving for rho, Initial residual = 0, Final residual = 0, No Iterations 0
DILUPBiCG:  Solving for Ux, Initial residual = 0.1606705339482394, Final residual = 2.231856494271761e-19, No Iterations 3
DILUPBiCG:  Solving for Uy, Initial residual = 0.1606705339473838, Final residual = 2.26480508133901e-19, No Iterations 3
DILUPBiCG:  Solving for Uz, Initial residual = 0.04661356795230918, Final residual = 1.888344197409782e-13, No Iterations 2
DILUPBiCG:  Solving for e, Initial residual = 0.04572760571285456, Final residual = 2.296487723587257e-13, No Iterations 2
DILUPBiCG:  Solving for p, Initial residual = 0.04645430728868313, Final residual = 8.332660760172333e-07, No Iterations 1
pEqnloop: 0
diagonal:  Solving for rho, Initial residual = 0, Final residual = 0, No Iterations 0
time step continuity errors : sum local = 6.1446130148671e-13, global = 1.788041593631424e-13, cumulative = 4.066173916371895e-13
DILUPBiCG:  Solving for p, Initial residual = 8.531344858691507e-07, Final residual = 1.127808263562303e-15, No Iterations 2
pEqnloop: 1
diagonal:  Solving for rho, Initial residual = 0, Final residual = 0, No Iterations 0
time step continuity errors : sum local = 1.272067483985104e-16, global = -6.953774611581983e-19, cumulative = 4.066166962597284e-13
DILUPBiCG:  Solving for k, Initial residual = 0.1002924923832719, Final residual = 4.444148845535615e-13, No Iterations 2
ExecutionTime = 274.53 s  ClockTime = 342 s

APIO_IO_STEP = 1.713827990000027
Courant Number mean: 1.002034394660058e-08 max: 0.00487171116725973
deltaT = 2.848515765597234e-07
Time = 1.70311e-06

PIMPLE: iteration 1
diagonal:  Solving for rho, Initial residual = 0, Final residual = 0, No Iterations 0
DILUPBiCG:  Solving for Ux, Initial residual = 0.1601061568384382, Final residual = 7.79023309522293e-19, No Iterations 3
DILUPBiCG:  Solving for Uy, Initial residual = 0.160106156837712, Final residual = 7.920999697606447e-19, No Iterations 3
DILUPBiCG:  Solving for Uz, Initial residual = 0.04635203042904652, Final residual = 5.296785102668322e-13, No Iterations 2
DILUPBiCG:  Solving for e, Initial residual = 0.04531285987718453, Final residual = 5.331723516993686e-13, No Iterations 2
DILUPBiCG:  Solving for p, Initial residual = 0.04618212265712619, Final residual = 1.211683795931509e-06, No Iterations 1
pEqnloop: 0
diagonal:  Solving for rho, Initial residual = 0, Final residual = 0, No Iterations 0
time step continuity errors : sum local = 1.067044999900857e-12, global = 3.190954821383012e-13, cumulative = 7.257121783980297e-13
DILUPBiCG:  Solving for p, Initial residual = 1.263418724498553e-06, Final residual = 3.653201614026727e-15, No Iterations 2
pEqnloop: 1
diagonal:  Solving for rho, Initial residual = 0, Final residual = 0, No Iterations 0
time step continuity errors : sum local = 1.531222762580889e-16, global = 1.225696202030546e-16, cumulative = 7.258347480182327e-13
DILUPBiCG:  Solving for k, Initial residual = 0.09994885837372162, Final residual = 2.868233633163316e-18, No Iterations 3
ExecutionTime = 282.97 s  ClockTime = 352 s

APIO_IO_STEP = 1.412654336000003
Courant Number mean: 1.211082482331513e-08 max: 0.005841174883411188
deltaT = 3.41821891871668e-07
Time = 2.04493e-06

PIMPLE: iteration 1
diagonal:  Solving for rho, Initial residual = 0, Final residual = 0, No Iterations 0
DILUPBiCG:  Solving for Ux, Initial residual = 0.1594926457882519, Final residual = 2.730847997087214e-18, No Iterations 3
DILUPBiCG:  Solving for Uy, Initial residual = 0.1594926457876651, Final residual = 2.784580042151542e-18, No Iterations 3
DILUPBiCG:  Solving for Uz, Initial residual = 0.04606335021795648, Final residual = 1.211655463374187e-17, No Iterations 3
DILUPBiCG:  Solving for e, Initial residual = 0.04485005529699973, Final residual = 4.664082737813116e-18, No Iterations 3
DILUPBiCG:  Solving for p, Initial residual = 0.04588749857391418, Final residual = 1.764846662530568e-06, No Iterations 1
pEqnloop: 0
diagonal:  Solving for rho, Initial residual = 0, Final residual = 0, No Iterations 0
time step continuity errors : sum local = 1.85436155599522e-12, global = 5.708500148264061e-13, cumulative = 1.296684762844639e-12
DILUPBiCG:  Solving for p, Initial residual = 1.874369754755164e-06, Final residual = 1.1955645417453e-14, No Iterations 2
pEqnloop: 1
diagonal:  Solving for rho, Initial residual = 0, Final residual = 0, No Iterations 0
time step continuity errors : sum local = 1.910079795128934e-16, global = -1.70726711268473e-16, cumulative = 1.29651403613337e-12
DILUPBiCG:  Solving for k, Initial residual = 0.09963076914246351, Final residual = 1.097589506078475e-17, No Iterations 3
ExecutionTime = 290.14 s  ClockTime = 362 s

APIO_IO_STEP = 3.322436650999975
Courant Number mean: 1.467431533224813e-08 max: 0.007008909706446848
deltaT = 4.101862702460016e-07
Time = 2.45512e-06

PIMPLE: iteration 1
diagonal:  Solving for rho, Initial residual = 0, Final residual = 0, No Iterations 0
DILUPBiCG:  Solving for Ux, Initial residual = 0.1588222512619504, Final residual = 9.608252255759925e-18, No Iterations 3
DILUPBiCG:  Solving for Uy, Initial residual = 0.1588222512615268, Final residual = 9.842755393871405e-18, No Iterations 3
DILUPBiCG:  Solving for Uz, Initial residual = 0.04574467797079486, Final residual = 4.563567290159109e-17, No Iterations 3
DILUPBiCG:  Solving for e, Initial residual = 0.04433586813205923, Final residual = 1.789433165754407e-17, No Iterations 3
DILUPBiCG:  Solving for p, Initial residual = 0.04556997537923984, Final residual = 2.574808710624646e-06, No Iterations 1
pEqnloop: 0
diagonal:  Solving for rho, Initial residual = 0, Final residual = 0, No Iterations 0
time step continuity errors : sum local = 3.224810459877262e-12, global = 1.02515245843469e-12, cumulative = 2.32166649456806e-12
DILUPBiCG:  Solving for p, Initial residual = 2.784001313487475e-06, Final residual = 3.968361794567243e-14, No Iterations 2
pEqnloop: 1
diagonal:  Solving for rho, Initial residual = 0, Final residual = 0, No Iterations 0
time step continuity errors : sum local = 1.872895578249673e-16, global = -1.676711962905179e-16, cumulative = 2.321498823371769e-12
DILUPBiCG:  Solving for k, Initial residual = 0.09933287191937895, Final residual = 4.142414256554247e-17, No Iterations 3
ExecutionTime = 299.46 s  ClockTime = 373 s

APIO_IO_STEP = 1.097171664999898
Courant Number mean: 1.784032562557457e-08 max: 0.008420730813754933
deltaT = 4.922235242952019e-07
Time = 2.94734e-06

PIMPLE: iteration 1
diagonal:  Solving for rho, Initial residual = 0, Final residual = 0, No Iterations 0
DILUPBiCG:  Solving for Ux, Initial residual = 0.1580902163239777, Final residual = 3.404957005090837e-17, No Iterations 3
DILUPBiCG:  Solving for Uy, Initial residual = 0.1580902163235946, Final residual = 3.516520240360189e-17, No Iterations 3
DILUPBiCG:  Solving for Uz, Initial residual = 0.04539524119019151, Final residual = 1.76897643810009e-16, No Iterations 3
DILUPBiCG:  Solving for e, Initial residual = 0.04377011949075994, Final residual = 6.817205090753628e-17, No Iterations 3
DILUPBiCG:  Solving for p, Initial residual = 0.04523139425416524, Final residual = 3.762452349538277e-06, No Iterations 1
pEqnloop: 0
diagonal:  Solving for rho, Initial residual = 0, Final residual = 0, No Iterations 0
time step continuity errors : sum local = 5.611236817516194e-12, global = 1.845939781224799e-12, cumulative = 4.167438604596568e-12
DILUPBiCG:  Solving for p, Initial residual = 4.136855442763441e-06, Final residual = 1.336550332788464e-13, No Iterations 2
pEqnloop: 1
diagonal:  Solving for rho, Initial residual = 0, Final residual = 0, No Iterations 0
time step continuity errors : sum local = 1.305291501649771e-16, global = 1.776333152571769e-17, cumulative = 4.167456367928094e-12
DILUPBiCG:  Solving for k, Initial residual = 0.09905077032490177, Final residual = 1.542600642553448e-16, No Iterations 3
ExecutionTime = 307.13 s  ClockTime = 383 s

APIO_IO_STEP = 2.807679381000128
Courant Number mean: 2.17862107561724e-08 max: 0.01013697504870312
deltaT = 5.906682291542422e-07
Time = 3.53801e-06

PIMPLE: iteration 1
diagonal:  Solving for rho, Initial residual = 0, Final residual = 0, No Iterations 0
DILUPBiCG:  Solving for Ux, Initial residual = 0.1572961564917735, Final residual = 1.232571977470898e-16, No Iterations 3
DILUPBiCG:  Solving for Uy, Initial residual = 0.1572961564914943, Final residual = 1.291504843360829e-16, No Iterations 3
DILUPBiCG:  Solving for Uz, Initial residual = 0.04501746295617175, Final residual = 6.980300873052635e-16, No Iterations 3
DILUPBiCG:  Solving for e, Initial residual = 0.04315749598488449, Final residual = 2.532552425342003e-16, No Iterations 3
DILUPBiCG:  Solving for p, Initial residual = 0.04488030596970524, Final residual = 5.505042938966612e-06, No Iterations 1
pEqnloop: 0
diagonal:  Solving for rho, Initial residual = 0, Final residual = 0, No Iterations 0
time step continuity errors : sum local = 9.76723820652542e-12, global = 3.327226377217429e-12, cumulative = 7.494682745145524e-12
DILUPBiCG:  Solving for p, Initial residual = 6.141123270750433e-06, Final residual = 4.572457731318033e-13, No Iterations 2
pEqnloop: 1
diagonal:  Solving for rho, Initial residual = 0, Final residual = 0, No Iterations 0
time step continuity errors : sum local = 2.759258291548444e-16, global = 2.646571075411917e-16, cumulative = 7.494947402253065e-12
DILUPBiCG:  Solving for k, Initial residual = 0.09878049581906366, Final residual = 5.670343483525371e-16, No Iterations 3
ExecutionTime = 315.11 s  ClockTime = 395 s

APIO_IO_STEP = 2.476979628000095
Courant Number mean: 2.675996857883819e-08 max: 0.01223925488543469
deltaT = 7.088018749850907e-07
Time = 4.24681e-06

PIMPLE: iteration 1
diagonal:  Solving for rho, Initial residual = 0, Final residual = 0, No Iterations 0
DILUPBiCG:  Solving for Ux, Initial residual = 0.1564459276006795, Final residual = 4.694276406705773e-16, No Iterations 3
DILUPBiCG:  Solving for Uy, Initial residual = 0.1564459276004476, Final residual = 5.038178259080981e-16, No Iterations 3
DILUPBiCG:  Solving for Uz, Initial residual = 0.04461867171837912, Final residual = 2.781816998790971e-15, No Iterations 3
DILUPBiCG:  Solving for e, Initial residual = 0.04251059455774039, Final residual = 9.160614499415072e-16, No Iterations 3
DILUPBiCG:  Solving for p, Initial residual = 0.0445282026876822, Final residual = 8.060858937583213e-06, No Iterations 1
pEqnloop: 0
diagonal:  Solving for rho, Initial residual = 0, Final residual = 0, No Iterations 0
time step continuity errors : sum local = 1.699821910402217e-11, global = 5.989133673846604e-12, cumulative = 1.348408107609967e-11
DILUPBiCG:  Solving for p, Initial residual = 9.095289344931734e-06, Final residual = 1.455544865048344e-16, No Iterations 3
pEqnloop: 1
diagonal:  Solving for rho, Initial residual = 0, Final residual = 0, No Iterations 0
time step continuity errors : sum local = 2.114592490426994e-16, global = -1.942799294567089e-16, cumulative = 1.348388679617021e-11
DILUPBiCG:  Solving for k, Initial residual = 0.09851750423200444, Final residual = 2.058084729721751e-15, No Iterations 3
ExecutionTime = 322.77 s  ClockTime = 406 s

APIO_IO_STEP = 2.498587212000018
Courant Number mean: 3.311482451021526e-08 max: 0.01484090815078859
deltaT = 8.505622499821088e-07
Time = 5.09737e-06

PIMPLE: iteration 1
diagonal:  Solving for rho, Initial residual = 0, Final residual = 0, No Iterations 0
DILUPBiCG:  Solving for Ux, Initial residual = 0.1555535925400741, Final residual = 1.968856249593054e-15, No Iterations 3
DILUPBiCG:  Solving for Uy, Initial residual = 0.1555535925400593, Final residual = 2.184089808514143e-15, No Iterations 3
DILUPBiCG:  Solving for Uz, Initial residual = 0.04421327122158202, Final residual = 1.113312461639743e-14, No Iterations 3
DILUPBiCG:  Solving for e, Initial residual = 0.04185223920711603, Final residual = 3.237549546574497e-15, No Iterations 3
DILUPBiCG:  Solving for p, Initial residual = 0.04418267830450262, Final residual = 1.180314168025099e-05, No Iterations 1
pEqnloop: 0
diagonal:  Solving for rho, Initial residual = 0, Final residual = 0, No Iterations 0
time step continuity errors : sum local = 2.955761786430849e-11, global = 1.074295545077622e-11, cumulative = 2.422684224694644e-11
DILUPBiCG:  Solving for p, Initial residual = 1.342838536951104e-05, Final residual = 6.759840481647546e-16, No Iterations 3
pEqnloop: 1
diagonal:  Solving for rho, Initial residual = 0, Final residual = 0, No Iterations 0
time step continuity errors : sum local = 2.932429793068399e-16, global = 2.275125679027932e-16, cumulative = 2.422706975951434e-11
DILUPBiCG:  Solving for k, Initial residual = 0.09825486085892697, Final residual = 7.379707238013703e-15, No Iterations 3
ExecutionTime = 332.06 s  ClockTime = 416 s

APIO_IO_STEP = 0.8579379189998804
Courant Number mean: 4.13619299150503e-08 max: 0.01810326026848214
deltaT = 1.02067469997853e-06
Time = 6.11805e-06

PIMPLE: iteration 1
diagonal:  Solving for rho, Initial residual = 0, Final residual = 0, No Iterations 0
DILUPBiCG:  Solving for Ux, Initial residual = 0.1546427283620921, Final residual = 1.149643642002424e-14, No Iterations 3
DILUPBiCG:  Solving for Uy, Initial residual = 0.1546427283624985, Final residual = 1.2908864151361e-14, No Iterations 3
DILUPBiCG:  Solving for Uz, Initial residual = 0.04382537655926064, Final residual = 4.459566278042508e-14, No Iterations 3
DILUPBiCG:  Solving for e, Initial residual = 0.0412161893280134, Final residual = 1.112968192686645e-14, No Iterations 3
DILUPBiCG:  Solving for p, Initial residual = 0.04386342401171289, Final residual = 1.725925047511216e-05, No Iterations 1
pEqnloop: 0
diagonal:  Solving for rho, Initial residual = 0, Final residual = 0, No Iterations 0
time step continuity errors : sum local = 5.128957786392666e-11, global = 1.909973767804381e-11, cumulative = 4.332680743755815e-11
DILUPBiCG:  Solving for p, Initial residual = 1.972149525533481e-05, Final residual = 3.132780592453867e-15, No Iterations 3
pEqnloop: 1
diagonal:  Solving for rho, Initial residual = 0, Final residual = 0, No Iterations 0
time step continuity errors : sum local = 1.840862634641715e-16, global = -3.846494637531691e-17, cumulative = 4.332676897261178e-11
DILUPBiCG:  Solving for k, Initial residual = 0.09798021289743, Final residual = 2.616951769517126e-14, No Iterations 3
ExecutionTime = 339.62 s  ClockTime = 426 s

APIO_IO_STEP = 2.016662880000013
Courant Number mean: 5.224846536581829e-08 max: 0.02226018300929385
deltaT = 1.224809639974236e-06
Time = 7.34286e-06

PIMPLE: iteration 1
diagonal:  Solving for rho, Initial residual = 0, Final residual = 0, No Iterations 0
DILUPBiCG:  Solving for Ux, Initial residual = 0.1537465932688759, Final residual = 7.659286489814846e-14, No Iterations 3
DILUPBiCG:  Solving for Uy, Initial residual = 0.1537465932719178, Final residual = 8.603470135810842e-14, No Iterations 3
DILUPBiCG:  Solving for Uz, Initial residual = 0.04349142337434579, Final residual = 1.787210543387504e-13, No Iterations 3
DILUPBiCG:  Solving for e, Initial residual = 0.04065069596864978, Final residual = 3.70949289016356e-14, No Iterations 3
DILUPBiCG:  Solving for p, Initial residual = 0.04359231852991128, Final residual = 2.51528389545513e-05, No Iterations 1
pEqnloop: 0
diagonal:  Solving for rho, Initial residual = 0, Final residual = 0, No Iterations 0
time step continuity errors : sum local = 8.865329045681208e-11, global = 3.339655225816973e-11, cumulative = 7.672332123078152e-11
DILUPBiCG:  Solving for p, Initial residual = 2.869143315708676e-05, Final residual = 1.467141458249012e-14, No Iterations 3
pEqnloop: 1
diagonal:  Solving for rho, Initial residual = 0, Final residual = 0, No Iterations 0
time step continuity errors : sum local = 1.699154331914688e-16, global = -8.47873986900434e-17, cumulative = 7.672323644338283e-11
DILUPBiCG:  Solving for k, Initial residual = 0.09767113725006227, Final residual = 9.199976147258125e-14, No Iterations 3
ExecutionTime = 349.34 s  ClockTime = 437 s

APIO_IO_STEP = 1.295051795000006
Courant Number mean: 6.686957923143241e-08 max: 0.02765365382495276
deltaT = 1.469771567969084e-06
Time = 8.81263e-06

PIMPLE: iteration 1
diagonal:  Solving for rho, Initial residual = 0, Final residual = 0, No Iterations 0
DILUPBiCG:  Solving for Ux, Initial residual = 0.152905110375968, Final residual = 5.693698087816409e-13, No Iterations 3
DILUPBiCG:  Solving for Uy, Initial residual = 0.1529051103881286, Final residual = 6.325804939542971e-13, No Iterations 3
DILUPBiCG:  Solving for Uz, Initial residual = 0.04326190054965733, Final residual = 7.188607730211243e-13, No Iterations 3
DILUPBiCG:  Solving for e, Initial residual = 0.04021674292693644, Final residual = 1.189125383223207e-13, No Iterations 3
DILUPBiCG:  Solving for p, Initial residual = 0.0433897000982439, Final residual = 3.643191881706425e-05, No Iterations 1
pEqnloop: 0
diagonal:  Solving for rho, Initial residual = 0, Final residual = 0, No Iterations 0
time step continuity errors : sum local = 1.52244323119063e-10, global = 5.672996421201266e-11, cumulative = 1.334532006553955e-10
DILUPBiCG:  Solving for p, Initial residual = 4.103917791471471e-05, Final residual = 7.661339416123006e-14, No Iterations 3
pEqnloop: 1
diagonal:  Solving for rho, Initial residual = 0, Final residual = 0, No Iterations 0
time step continuity errors : sum local = 1.999619117752746e-16, global = -1.011873129560181e-16, cumulative = 1.334530994680825e-10
DILUPBiCG:  Solving for k, Initial residual = 0.09728905587521888, Final residual = 3.223237235654277e-13, No Iterations 3
ExecutionTime = 357.29 s  ClockTime = 447 s

APIO_IO_STEP = 1.820430784000109
Courant Number mean: 8.68214403036339e-08 max: 0.03478177480746846
deltaT = 1.7637258815629e-06
Time = 1.05764e-05

PIMPLE: iteration 1
diagonal:  Solving for rho, Initial residual = 0, Final residual = 0, No Iterations 0
DILUPBiCG:  Solving for Ux, Initial residual = 0.1521560805788154, Final residual = 2.290104069926806e-15, No Iterations 4
DILUPBiCG:  Solving for Uy, Initial residual = 0.1521560806162489, Final residual = 2.293091790641234e-15, No Iterations 4
DILUPBiCG:  Solving for Uz, Initial residual = 0.04320004474060265, Final residual = 4.723054328201904e-16, No Iterations 4
DILUPBiCG:  Solving for e, Initial residual = 0.03997958981662894, Final residual = 3.559708190815194e-13, No Iterations 3
DILUPBiCG:  Solving for p, Initial residual = 0.04326645761339291, Final residual = 5.225031669545583e-05, No Iterations 1
pEqnloop: 0
diagonal:  Solving for rho, Initial residual = 0, Final residual = 0, No Iterations 0
time step continuity errors : sum local = 2.588389360759537e-10, global = 9.185062725884317e-11, cumulative = 2.253037267269257e-10
DILUPBiCG:  Solving for p, Initial residual = 5.684967429786687e-05, Final residual = 5.210172755300012e-13, No Iterations 3
pEqnloop: 1
diagonal:  Solving for rho, Initial residual = 0, Final residual = 0, No Iterations 0
time step continuity errors : sum local = 1.994790500159326e-16, global = -4.314759396422607e-17, cumulative = 2.253036835793317e-10
DILUPBiCG:  Solving for k, Initial residual = 0.09677296418073428, Final residual = 4.606793754580487e-17, No Iterations 4
ExecutionTime = 365.12 s  ClockTime = 457 s

APIO_IO_STEP = 1.610255130000041
Courant Number mean: 1.143995324213153e-07 max: 0.04435551329416965
deltaT = 2.11647105787548e-06
Time = 1.26928e-05

PIMPLE: iteration 1
diagonal:  Solving for rho, Initial residual = 0, Final residual = 0, No Iterations 0
DILUPBiCG:  Solving for Ux, Initial residual = 0.1515186745934117, Final residual = 2.652495796352567e-14, No Iterations 4
DILUPBiCG:  Solving for Uy, Initial residual = 0.1515186745802609, Final residual = 2.654034840632794e-14, No Iterations 4
DILUPBiCG:  Solving for Uz, Initial residual = 0.04337477672722275, Final residual = 5.279974560762845e-14, No Iterations 4
DILUPBiCG:  Solving for e, Initial residual = 0.03998895676141168, Final residual = 8.762433396883417e-13, No Iterations 3
DILUPBiCG:  Solving for p, Initial residual = 0.04321223298704524, Final residual = 7.383358383384447e-05, No Iterations 1
pEqnloop: 0
diagonal:  Solving for rho, Initial residual = 0, Final residual = 0, No Iterations 0
time step continuity errors : sum local = 4.335630786583954e-10, global = 1.378194761985893e-10, cumulative = 3.63123159777921e-10
DILUPBiCG:  Solving for p, Initial residual = 7.650022625195016e-05, Final residual = 4.710408531216926e-15, No Iterations 4
pEqnloop: 1
diagonal:  Solving for rho, Initial residual = 0, Final residual = 0, No Iterations 0
time step continuity errors : sum local = 1.633278484715079e-16, global = 2.186059724360629e-17, cumulative = 3.631231816385183e-10
DILUPBiCG:  Solving for k, Initial residual = 0.09603629529184569, Final residual = 3.095044275416568e-16, No Iterations 4
ExecutionTime = 373.39 s  ClockTime = 467 s

APIO_IO_STEP = 1.755208867999954
Courant Number mean: 1.528474307157051e-07 max: 0.05734724193901759
deltaT = 2.539765269450577e-06
Time = 1.52326e-05

PIMPLE: iteration 1
diagonal:  Solving for rho, Initial residual = 0, Final residual = 0, No Iterations 0
DILUPBiCG:  Solving for Ux, Initial residual = 0.1509719689912419, Final residual = 2.828045188234365e-13, No Iterations 4
DILUPBiCG:  Solving for Uy, Initial residual = 0.1509719690783452, Final residual = 2.830601102674332e-13, No Iterations 4
DILUPBiCG:  Solving for Uz, Initial residual = 0.04384555077967658, Final residual = 4.327373202385296e-14, No Iterations 4
DILUPBiCG:  Solving for e, Initial residual = 0.0402455961015946, Final residual = 1.986050084977854e-16, No Iterations 4
DILUPBiCG:  Solving for p, Initial residual = 0.04318392235875107, Final residual = 0.000102410138385088, No Iterations 1
pEqnloop: 0
diagonal:  Solving for rho, Initial residual = 0, Final residual = 0, No Iterations 0
time step continuity errors : sum local = 7.127817115608714e-10, global = 1.853955910139521e-10, cumulative = 5.485187726524704e-10
DILUPBiCG:  Solving for p, Initial residual = 0.0001034926867667235, Final residual = 2.784301011558447e-14, No Iterations 4
pEqnloop: 1
diagonal:  Solving for rho, Initial residual = 0, Final residual = 0, No Iterations 0
time step continuity errors : sum local = 1.669976930688079e-16, global = 8.720839731506475e-17, cumulative = 5.485188598608678e-10
DILUPBiCG:  Solving for k, Initial residual = 0.09497370507347609, Final residual = 2.220315891159602e-15, No Iterations 4
ExecutionTime = 381.83 s  ClockTime = 477 s

APIO_IO_STEP = 1.655825411999956
Courant Number mean: 2.066968854394636e-07 max: 0.07498895197267677
deltaT = 3.047718323340692e-06
Time = 1.82803e-05

PIMPLE: iteration 1
diagonal:  Solving for rho, Initial residual = 0, Final residual = 0, No Iterations 0
[...]
DILUPBiCG:  Solving for k, Initial residual = 0.009034135843933757, Final residual = 2.316680653821673e-13, No Iterations 5
ExecutionTime = 1011.92 s  ClockTime = 2609 s

APIO_IO_STEP = 17.15219342199907
Courant Number mean: 4.344736929495715e-06 max: 0.2001618119326848
deltaT = 2.740282293321084e-06
Time = 0.000170554

PIMPLE: iteration 1
diagonal:  Solving for rho, Initial residual = 0, Final residual = 0, No Iterations 0
DILUPBiCG:  Solving for Ux, Initial residual = 0.01634374939224145, Final residual = 2.074273681346267e-13, No Iterations 5
DILUPBiCG:  Solving for Uy, Initial residual = 0.01634372708014944, Final residual = 2.2600877300443e-13, No Iterations 5
DILUPBiCG:  Solving for Uz, Initial residual = 0.00807270642036116, Final residual = 1.981749397098174e-13, No Iterations 5
DILUPBiCG:  Solving for e, Initial residual = 0.01129352631726679, Final residual = 4.466096376159975e-13, No Iterations 4
DILUPBiCG:  Solving for p, Initial residual = 0.01468519382152607, Final residual = 2.468732725749639e-05, No Iterations 1
pEqnloop: 0
diagonal:  Solving for rho, Initial residual = 0, Final residual = 0, No Iterations 0
time step continuity errors : sum local = 2.013193027881569e-09, global = -5.253276291102272e-10, cumulative = -2.387419769578535e-08
DILUPBiCG:  Solving for p, Initial residual = 0.0001156400215774563, Final residual = 8.01280381609226e-13, No Iterations 4
pEqnloop: 1
diagonal:  Solving for rho, Initial residual = 0, Final residual = 0, No Iterations 0
time step continuity errors : sum local = 2.264348550622811e-16, global = 9.808604105162778e-18, cumulative = -2.387419768597675e-08
DILUPBiCG:  Solving for k, Initial residual = 0.009102171032787074, Final residual = 1.644779363765324e-13, No Iterations 5
ExecutionTime = 1022.43 s  ClockTime = 2637 s

APIO_IO_STEP = 11.32415012199954
Courant Number mean: 4.447036087779802e-06 max: 0.1996604303115005
deltaT = 2.744942790162091e-06
Time = 0.000173299

PIMPLE: iteration 1
diagonal:  Solving for rho, Initial residual = 0, Final residual = 0, No Iterations 0
DILUPBiCG:  Solving for Ux, Initial residual = 0.0162016309092707, Final residual = 1.893954255610199e-13, No Iterations 5
DILUPBiCG:  Solving for Uy, Initial residual = 0.01620161148736373, Final residual = 2.065585111461798e-13, No Iterations 5
DILUPBiCG:  Solving for Uz, Initial residual = 0.008009209487462778, Final residual = 1.955407999596538e-13, No Iterations 5
DILUPBiCG:  Solving for e, Initial residual = 0.0112354840139256, Final residual = 4.664430520690999e-13, No Iterations 4
DILUPBiCG:  Solving for p, Initial residual = 0.01463148368612952, Final residual = 2.453715999261677e-05, No Iterations 1
pEqnloop: 0
diagonal:  Solving for rho, Initial residual = 0, Final residual = 0, No Iterations 0
time step continuity errors : sum local = 2.036460199322103e-09, global = -5.433624422392674e-10, cumulative = -2.441756012821601e-08
DILUPBiCG:  Solving for p, Initial residual = 0.000100751285029371, Final residual = 1.249099338328411e-14, No Iterations 5
pEqnloop: 1
diagonal:  Solving for rho, Initial residual = 0, Final residual = 0, No Iterations 0
time step continuity errors : sum local = 1.946203217348725e-16, global = -1.300997026057415e-16, cumulative = -2.441756025831571e-08
DILUPBiCG:  Solving for k, Initial residual = 0.009159474525911631, Final residual = 6.058004316650276e-15, No Iterations 6
ExecutionTime = 1033.86 s  ClockTime = 2661 s

APIO_IO_STEP = 9.778488540999206
Courant Number mean: 4.562693550285455e-06 max: 0.1995635956286578
deltaT = 2.750945413180255e-06
Time = 0.00017605

PIMPLE: iteration 1
diagonal:  Solving for rho, Initial residual = 0, Final residual = 0, No Iterations 0
DILUPBiCG:  Solving for Ux, Initial residual = 0.01607370312187457, Final residual = 1.757039270026987e-13, No Iterations 5
DILUPBiCG:  Solving for Uy, Initial residual = 0.01607367537384419, Final residual = 1.916761642032346e-13, No Iterations 5
DILUPBiCG:  Solving for Uz, Initial residual = 0.007962900298291947, Final residual = 1.945363675725144e-13, No Iterations 5
DILUPBiCG:  Solving for e, Initial residual = 0.01117163974133206, Final residual = 2.240730690907486e-14, No Iterations 5
DILUPBiCG:  Solving for p, Initial residual = 0.01457986656772224, Final residual = 2.455059721052423e-05, No Iterations 1
pEqnloop: 0
diagonal:  Solving for rho, Initial residual = 0, Final residual = 0, No Iterations 0
time step continuity errors : sum local = 2.073352269293685e-09, global = -5.848533727776706e-10, cumulative = -2.500241363109338e-08
DILUPBiCG:  Solving for p, Initial residual = 0.0001054802358366881, Final residual = 1.842602946861105e-14, No Iterations 5
pEqnloop: 1
diagonal:  Solving for rho, Initial residual = 0, Final residual = 0, No Iterations 0
time step continuity errors : sum local = 1.655931843298392e-16, global = -4.029253785283665e-17, cumulative = -2.500241367138592e-08
DILUPBiCG:  Solving for k, Initial residual = 0.009187411132456262, Final residual = 1.102276327331475e-13, No Iterations 5
ExecutionTime = 1045.69 s  ClockTime = 2689 s

APIO_IO_STEP = 12.30325656800005
Courant Number mean: 4.682448923326672e-06 max: 0.199617900145561
deltaT = 2.756211152581264e-06
Time = 0.000178806

PIMPLE: iteration 1
diagonal:  Solving for rho, Initial residual = 0, Final residual = 0, No Iterations 0
DILUPBiCG:  Solving for Ux, Initial residual = 0.01592636549917864, Final residual = 1.656070726412877e-13, No Iterations 5
DILUPBiCG:  Solving for Uy, Initial residual = 0.01592634585578946, Final residual = 1.807045700530537e-13, No Iterations 5
DILUPBiCG:  Solving for Uz, Initial residual = 0.007906145287255639, Final residual = 1.918706297459043e-13, No Iterations 5
DILUPBiCG:  Solving for e, Initial residual = 0.01117278895882483, Final residual = 4.574352428595719e-13, No Iterations 4
DILUPBiCG:  Solving for p, Initial residual = 0.01458403669800967, Final residual = 2.406004419323712e-05, No Iterations 1
pEqnloop: 0
diagonal:  Solving for rho, Initial residual = 0, Final residual = 0, No Iterations 0
time step continuity errors : sum local = 2.067188450593567e-09, global = -5.654602481554926e-10, cumulative = -2.556787391954141e-08
DILUPBiCG:  Solving for p, Initial residual = 9.936787792783957e-05, Final residual = 8.439540835667364e-13, No Iterations 4
pEqnloop: 1
diagonal:  Solving for rho, Initial residual = 0, Final residual = 0, No Iterations 0
time step continuity errors : sum local = 2.45224974342744e-16, global = 7.94768853673285e-17, cumulative = -2.556787384006453e-08
DILUPBiCG:  Solving for k, Initial residual = 0.009190147987307244, Final residual = 1.036859562753332e-13, No Iterations 5
ExecutionTime = 1055.87 s  ClockTime = 2716 s

APIO_IO_STEP = 12.83336293699904
Courant Number mean: 4.801766034470074e-06 max: 0.1994723785767335
deltaT = 2.763501565727793e-06
Time = 0.00018157

PIMPLE: iteration 1
diagonal:  Solving for rho, Initial residual = 0, Final residual = 0, No Iterations 0
DILUPBiCG:  Solving for Ux, Initial residual = 0.01578098718722726, Final residual = 1.614595290274827e-13, No Iterations 5
DILUPBiCG:  Solving for Uy, Initial residual = 0.01578096609239905, Final residual = 1.757355090456881e-13, No Iterations 5
DILUPBiCG:  Solving for Uz, Initial residual = 0.007827594314741941, Final residual = 1.880797558390915e-13, No Iterations 5
DILUPBiCG:  Solving for e, Initial residual = 0.01124367291477173, Final residual = 4.167632604931588e-13, No Iterations 4
DILUPBiCG:  Solving for p, Initial residual = 0.01459016303491886, Final residual = 2.409853393689787e-05, No Iterations 1
pEqnloop: 0
diagonal:  Solving for rho, Initial residual = 0, Final residual = 0, No Iterations 0
time step continuity errors : sum local = 2.105953694391548e-09, global = -5.769571518967501e-10, cumulative = -2.614483099196128e-08
DILUPBiCG:  Solving for p, Initial residual = 0.0001030217834198458, Final residual = 3.07080691738707e-14, No Iterations 5
pEqnloop: 1
diagonal:  Solving for rho, Initial residual = 0, Final residual = 0, No Iterations 0
time step continuity errors : sum local = 1.658810531422749e-16, global = 2.837401469621314e-17, cumulative = -2.614483096358726e-08
DILUPBiCG:  Solving for k, Initial residual = 0.009177756621621852, Final residual = 1.24474984466809e-14, No Iterations 5
ExecutionTime = 1064.3 s  ClockTime = 2742 s

APIO_IO_STEP = 13.61140208800043
Courant Number mean: 4.925965157445076e-06 max: 0.199069925869703
deltaT = 2.776412914863464e-06
Time = 0.000184346

PIMPLE: iteration 1
diagonal:  Solving for rho, Initial residual = 0, Final residual = 0, No Iterations 0
DILUPBiCG:  Solving for Ux, Initial residual = 0.01565982495524135, Final residual = 1.625842562804339e-13, No Iterations 5
DILUPBiCG:  Solving for Uy, Initial residual = 0.01565980189851846, Final residual = 1.765961084441689e-13, No Iterations 5
DILUPBiCG:  Solving for Uz, Initial residual = 0.007789063292044037, Final residual = 1.863534184109254e-13, No Iterations 5
DILUPBiCG:  Solving for e, Initial residual = 0.01121815328251464, Final residual = 4.054494903233469e-13, No Iterations 4
DILUPBiCG:  Solving for p, Initial residual = 0.01452250773577976, Final residual = 2.435998873292018e-05, No Iterations 1
pEqnloop: 0
diagonal:  Solving for rho, Initial residual = 0, Final residual = 0, No Iterations 0
time step continuity errors : sum local = 2.164827830018957e-09, global = -6.046007826869694e-10, cumulative = -2.674943174627423e-08
DILUPBiCG:  Solving for p, Initial residual = 0.000101998015853886, Final residual = 1.950244312252591e-14, No Iterations 5
pEqnloop: 1
diagonal:  Solving for rho, Initial residual = 0, Final residual = 0, No Iterations 0
time step continuity errors : sum local = 1.655679682718278e-16, global = 4.583006493831511e-17, cumulative = -2.674943170044417e-08
DILUPBiCG:  Solving for k, Initial residual = 0.0091615141826466, Final residual = 1.392020089925657e-14, No Iterations 5
ExecutionTime = 1073.59 s  ClockTime = 2766 s

APIO_IO_STEP = 11.33322896499931
Courant Number mean: 5.062621465243772e-06 max: 0.1984633836961483
deltaT = 2.797909481493269e-06
Time = 0.000187144

PIMPLE: iteration 1
diagonal:  Solving for rho, Initial residual = 0, Final residual = 0, No Iterations 0
DILUPBiCG:  Solving for Ux, Initial residual = 0.0156209628210146, Final residual = 1.676792532578076e-13, No Iterations 5
DILUPBiCG:  Solving for Uy, Initial residual = 0.01562094322792925, Final residual = 1.823050110680907e-13, No Iterations 5
DILUPBiCG:  Solving for Uz, Initial residual = 0.00779182928400466, Final residual = 1.878491844555469e-13, No Iterations 5
DILUPBiCG:  Solving for e, Initial residual = 0.01124959956575705, Final residual = 1.883471513725679e-14, No Iterations 5
DILUPBiCG:  Solving for p, Initial residual = 0.0146317899670752, Final residual = 2.467939722186929e-05, No Iterations 1
pEqnloop: 0
diagonal:  Solving for rho, Initial residual = 0, Final residual = 0, No Iterations 0
time step continuity errors : sum local = 2.230038903363737e-09, global = -6.276125760749281e-10, cumulative = -2.73770442765191e-08
DILUPBiCG:  Solving for p, Initial residual = 0.0001011308068037393, Final residual = 1.24681508468638e-14, No Iterations 5
pEqnloop: 1
diagonal:  Solving for rho, Initial residual = 0, Final residual = 0, No Iterations 0
time step continuity errors : sum local = 1.750002200538845e-16, global = -8.083750690781416e-17, cumulative = -2.73770443573566e-08
DILUPBiCG:  Solving for k, Initial residual = 0.009180235973018439, Final residual = 1.734874986319641e-14, No Iterations 5
ExecutionTime = 1084.29 s  ClockTime = 2789 s

APIO_IO_STEP = 10.41390772399927
Courant Number mean: 5.218056060319117e-06 max: 0.2007290108671373
deltaT = 2.787747988600605e-06
Time = 0.000189932

PIMPLE: iteration 1
diagonal:  Solving for rho, Initial residual = 0, Final residual = 0, No Iterations 0
DILUPBiCG:  Solving for Ux, Initial residual = 0.01544990263661668, Final residual = 1.626677138047745e-13, No Iterations 5
DILUPBiCG:  Solving for Uy, Initial residual = 0.01544987752987342, Final residual = 1.776266507325904e-13, No Iterations 5
DILUPBiCG:  Solving for Uz, Initial residual = 0.007701232966531362, Final residual = 1.796524690883084e-13, No Iterations 5
DILUPBiCG:  Solving for e, Initial residual = 0.0112358842069204, Final residual = 1.717211757748677e-14, No Iterations 5
DILUPBiCG:  Solving for p, Initial residual = 0.01453091291483088, Final residual = 2.360796375602493e-05, No Iterations 1
pEqnloop: 0
diagonal:  Solving for rho, Initial residual = 0, Final residual = 0, No Iterations 0
time step continuity errors : sum local = 2.168694173720169e-09, global = -5.753559509054502e-10, cumulative = -2.795240030826205e-08
DILUPBiCG:  Solving for p, Initial residual = 0.0001027043561401616, Final residual = 3.047408307944473e-14, No Iterations 5
pEqnloop: 1
diagonal:  Solving for rho, Initial residual = 0, Final residual = 0, No Iterations 0
time step continuity errors : sum local = 1.816626516779797e-16, global = 9.328249950385007e-17, cumulative = -2.795240021497955e-08
DILUPBiCG:  Solving for k, Initial residual = 0.009121440636129415, Final residual = 9.852372940483522e-15, No Iterations 5
ExecutionTime = 1094.05 s  ClockTime = 2814 s

APIO_IO_STEP = 11.17462352299981
Courant Number mean: 5.315174710859733e-06 max: 0.2018822096268623
deltaT = 2.761756960906233e-06
Time = 0.000192693

PIMPLE: iteration 1
diagonal:  Solving for rho, Initial residual = 0, Final residual = 0, No Iterations 0
DILUPBiCG:  Solving for Ux, Initial residual = 0.01520682966240414, Final residual = 1.497680318376797e-13, No Iterations 5
DILUPBiCG:  Solving for Uy, Initial residual = 0.01520680128910519, Final residual = 1.647706548389264e-13, No Iterations 5
DILUPBiCG:  Solving for Uz, Initial residual = 0.007565642680981732, Final residual = 1.653286695744575e-13, No Iterations 5
DILUPBiCG:  Solving for e, Initial residual = 0.01110013928646573, Final residual = 7.411882017737019e-14, No Iterations 5
DILUPBiCG:  Solving for p, Initial residual = 0.01439853065215748, Final residual = 2.263394333880383e-05, No Iterations 1
pEqnloop: 0
diagonal:  Solving for rho, Initial residual = 0, Final residual = 0, No Iterations 0
time step continuity errors : sum local = 2.113110558906983e-09, global = -5.532918197675776e-10, cumulative = -2.850569203474713e-08
DILUPBiCG:  Solving for p, Initial residual = 9.555263903253024e-05, Final residual = 1.702568031876694e-14, No Iterations 5
pEqnloop: 1
diagonal:  Solving for rho, Initial residual = 0, Final residual = 0, No Iterations 0
time step continuity errors : sum local = 1.721746488637721e-16, global = 6.636543996502617e-17, cumulative = -2.850569196838169e-08
DILUPBiCG:  Solving for k, Initial residual = 0.009042417503683597, Final residual = 1.084439353456932e-14, No Iterations 5
ExecutionTime = 1104.49 s  ClockTime = 2837 s

APIO_IO_STEP = 9.806721723999999
Courant Number mean: 5.378386865632687e-06 max: 0.2016301440011018
deltaT = 2.739428645045384e-06
Time = 0.000195433

PIMPLE: iteration 1
diagonal:  Solving for rho, Initial residual = 0, Final residual = 0, No Iterations 0
DILUPBiCG:  Solving for Ux, Initial residual = 0.01496824424004584, Final residual = 1.3680072217268e-13, No Iterations 5
DILUPBiCG:  Solving for Uy, Initial residual = 0.01496821579004432, Final residual = 1.516693517978543e-13, No Iterations 5
DILUPBiCG:  Solving for Uz, Initial residual = 0.007423133154848396, Final residual = 1.520920212350504e-13, No Iterations 5
DILUPBiCG:  Solving for e, Initial residual = 0.01099459209731866, Final residual = 2.832037211610161e-14, No Iterations 5
DILUPBiCG:  Solving for p, Initial residual = 0.01416526040662213, Final residual = 2.154386715353591e-05, No Iterations 1
pEqnloop: 0
diagonal:  Solving for rho, Initial residual = 0, Final residual = 0, No Iterations 0
time step continuity errors : sum local = 2.04373608481348e-09, global = -5.393398446667303e-10, cumulative = -2.904503181304842e-08
DILUPBiCG:  Solving for p, Initial residual = 0.0001003234162507333, Final residual = 1.229698847843889e-14, No Iterations 5
pEqnloop: 1
diagonal:  Solving for rho, Initial residual = 0, Final residual = 0, No Iterations 0
time step continuity errors : sum local = 1.777319405110127e-16, global = -8.467515860499174e-17, cumulative = -2.904503189772357e-08
DILUPBiCG:  Solving for k, Initial residual = 0.008987535320546955, Final residual = 1.200678738827183e-14, No Iterations 5
ExecutionTime = 1113.24 s  ClockTime = 2860 s

APIO_IO_STEP = 11.0806840399996
Courant Number mean: 5.445288847527283e-06 max: 0.2007901851322779
deltaT = 2.728647959800098e-06
Time = 0.000198162

PIMPLE: iteration 1
diagonal:  Solving for rho, Initial residual = 0, Final residual = 0, No Iterations 0
DILUPBiCG:  Solving for Ux, Initial residual = 0.01477896459709278, Final residual = 1.276889320964707e-13, No Iterations 5
DILUPBiCG:  Solving for Uy, Initial residual = 0.01477894320702772, Final residual = 1.428055576923563e-13, No Iterations 5
DILUPBiCG:  Solving for Uz, Initial residual = 0.007326372281279725, Final residual = 1.43426553010771e-13, No Iterations 5
DILUPBiCG:  Solving for e, Initial residual = 0.01087902293440289, Final residual = 2.088151160419185e-14, No Iterations 5
DILUPBiCG:  Solving for p, Initial residual = 0.01402347482734411, Final residual = 2.108675483437562e-05, No Iterations 1
pEqnloop: 0
diagonal:  Solving for rho, Initial residual = 0, Final residual = 0, No Iterations 0
time step continuity errors : sum local = 2.032485582001628e-09, global = -5.462590675078255e-10, cumulative = -2.95912909652314e-08
DILUPBiCG:  Solving for p, Initial residual = 9.272383735276776e-05, Final residual = 3.300703365628068e-14, No Iterations 5
pEqnloop: 1
diagonal:  Solving for rho, Initial residual = 0, Final residual = 0, No Iterations 0
time step continuity errors : sum local = 1.612789012836077e-16, global = 2.021680024081225e-19, cumulative = -2.959129096502923e-08
DILUPBiCG:  Solving for k, Initial residual = 0.008971229642204209, Final residual = 1.839540101080727e-13, No Iterations 5
ExecutionTime = 1122.86 s  ClockTime = 2884 s

APIO_IO_STEP = 10.11268213499943
Courant Number mean: 5.534829261384422e-06 max: 0.2003312546442616
deltaT = 2.724136046215538e-06
Time = 0.000200886

PIMPLE: iteration 1
diagonal:  Solving for rho, Initial residual = 0, Final residual = 0, No Iterations 0
DILUPBiCG:  Solving for Ux, Initial residual = 0.01464951453685616, Final residual = 1.219124997775636e-13, No Iterations 5
DILUPBiCG:  Solving for Uy, Initial residual = 0.01464949791564592, Final residual = 1.376781835181763e-13, No Iterations 5
DILUPBiCG:  Solving for Uz, Initial residual = 0.00727434535332395, Final residual = 1.381887737038833e-13, No Iterations 5
DILUPBiCG:  Solving for e, Initial residual = 0.0108564493086116, Final residual = 1.646886277972073e-14, No Iterations 5
DILUPBiCG:  Solving for p, Initial residual = 0.01395678146903485, Final residual = 2.097253567969176e-05, No Iterations 1
pEqnloop: 0
diagonal:  Solving for rho, Initial residual = 0, Final residual = 0, No Iterations 0
time step continuity errors : sum local = 2.053759352924515e-09, global = -5.594611704685089e-10, cumulative = -3.015075213549774e-08
DILUPBiCG:  Solving for p, Initial residual = 9.190069830916818e-05, Final residual = 1.421127661715347e-14, No Iterations 5
pEqnloop: 1
diagonal:  Solving for rho, Initial residual = 0, Final residual = 0, No Iterations 0
time step continuity errors : sum local = 1.774665773381496e-16, global = 9.231641523980361e-17, cumulative = -3.015075204318133e-08
DILUPBiCG:  Solving for k, Initial residual = 0.008982492790680568, Final residual = 2.014512031091546e-13, No Iterations 5
ExecutionTime = 1132.54 s  ClockTime = 2909 s

APIO_IO_STEP = 12.28013767499897
Terminating ...
End

APIO_IO_TIME = 1349.583673377805
Finalising parallel run
