/*---------------------------------------------------------------------------*\
| =========                 |                                                 |
| \\      /  F ield         | OpenFOAM: The Open Source CFD Toolbox           |
|  \\    /   O peration     | Version:  v1912                                 |
|   \\  /    A nd           | Website:  www.openfoam.com                      |
|    \\/     M anipulation  |                                                 |
\*---------------------------------------------------------------------------*/
Build  : _f3950763fe-20191219 OPENFOAM=1912
Arch   : "LSB;label=32;scalar=64"
Exec   : rhoPimpleFoam_METRICS -parallel
Date   : Nov 26 2020
Time   : 18:50:09
Host   : r33c3t6n4
PID    : 200593
I/O    : uncollated
Case   : /lustre/cray/ws9/2/ws/hpcmcast-ashee_single
nProcs : 128
Hosts  :
(
    (r33c3t6n4 128)
)
Pstream initialized with:
    floatTransfer      : 0
    nProcsSimpleSum    : 0
    commsType          : nonBlocking
    polling iterations : 0
trapFpe: Floating point exception trapping enabled (FOAM_SIGFPE).
fileModificationChecking : Monitoring run-time modified files using timeStampMaster (fileModificationSkew 10)
allowSystemOperations : Allowing user-supplied system call operations

// * * * * * * * * * * * * * * * * * * * * * * * * * * * * * * * * * * * * * //
Create time

Create mesh for time = 0


PIMPLE: Operating solver in PISO mode

Reading thermophysical properties

Selecting thermodynamics package 
{
    type            hePsiThermo;
    mixture         pureMixture;
    transport       const;
    thermo          eConst;
    equationOfState perfectGas;
    specie          specie;
    energy          sensibleInternalEnergy;
}

Reading field U

Reading/calculating face flux field phi

--> FOAM Warning : 
    From function Foam::pressureControl::pressureControl(const volScalarField&, const volScalarField&, const Foam::dictionary&, bool)
    in file cfdTools/general/pressureControl/pressureControl.C at line 123
    Reading "/lustre/cray/ws9/2/ws/hpcmcast-ashee_single/system/fvSolution.PIMPLE"
    'rhoMax' specified rather than 'pMax' or 'pMaxFactor'
    This is supported for backward-compatibility but 'pMax' or 'pMaxFactor' are more reliable.
--> FOAM Warning : 
    From function Foam::pressureControl::pressureControl(const volScalarField&, const volScalarField&, const Foam::dictionary&, bool)
    in file cfdTools/general/pressureControl/pressureControl.C at line 178
    Reading "/lustre/cray/ws9/2/ws/hpcmcast-ashee_single/system/fvSolution.PIMPLE"
    'rhoMin' specified rather than 'pMin' or 'pMinFactor'
    This is supported for backward-compatibility but 'pMin' or 'pMinFactor' are more reliable.
pressureControl
    pMax 1726187.557059955
    pMin 4747.015781914877

Creating turbulence model

Selecting turbulence model type LES
Selecting LES turbulence model kEqn
Selecting LES delta type cubeRootVol
LES
{
    LESModel        kEqn;
    turbulence      on;
    printCoeffs     on;
    delta           cubeRootVol;
    cubeRootVolCoeffs
    {
        deltaCoeff      1;
    }
    PrandtlCoeffs
    {
        delta           cubeRootVol;
        cubeRootVolCoeffs
        {
            deltaCoeff      1;
        }
        smoothCoeffs
        {
            delta           cubeRootVol;
            cubeRootVolCoeffs
            {
                deltaCoeff      1;
            }
            maxDeltaRatio   1.1;
        }
        Cdelta          0.158;
    }
    vanDriestCoeffs
    {
        delta           cubeRootVol;
        cubeRootVolCoeffs
        {
            deltaCoeff      1;
        }
        smoothCoeffs
        {
            delta           cubeRootVol;
            cubeRootVolCoeffs
            {
                deltaCoeff      1;
            }
            maxDeltaRatio   1.1;
        }
        Aplus           26;
        Cdelta          0.158;
    }
    smoothCoeffs
    {
        delta           cubeRootVol;
        cubeRootVolCoeffs
        {
            deltaCoeff      1;
        }
        maxDeltaRatio   1.1;
    }
    Ce              1.048;
    Ck              0.094;
}

Creating field dpdt

Creating field kinetic energy K

No MRF models present

procNo = 81
procNo = 82
procNo = 83
procNo = 84
procNo = 85
procNo = 86
procNo = 87
procNo = 88
procNo = 89
procNo = 90
procNo = 91
procNo = 92
procNo = 93
procNo = 94
procNo = 95
procNo = 96
procNo = 97
procNo = 98
procNo = 99
procNo = 100
procNo = 101
procNo = 102
procNo = 103
procNo = 104
procNo = 105
procNo = 106
procNo = 107
procNo = 108
procNo = 109
procNo = 110
procNo = 111
procNo = 112
procNo = 113
procNo = 114
procNo = 115
procNo = 116
procNo = 117
procNo = 118
procNo = 119
procNo = 120
procNo = 121
procNo = 122
procNo = 123
procNo = 124
procNo = 125
procNo = 126
procNo = 127
No finite volume options present
procNo = 0
masterNo = 0
procNo = 1
procNo = 2
procNo = 3
procNo = 4
procNo = 5
procNo = 6
procNo = 7
procNo = 8
procNo = 9
procNo = 10
procNo = 11
procNo = 12
procNo = 13
procNo = 14
procNo = 15
procNo = 16
procNo = 17
procNo = 18
procNo = 19
procNo = 20
procNo = 21
procNo = 22
procNo = 23
procNo = 24
procNo = 25
procNo = 26
procNo = 27
procNo = 28
procNo = 29
procNo = 30
procNo = 31
procNo = 32
procNo = 33
procNo = 34
procNo = 35
procNo = 36
procNo = 37
procNo = 38
procNo = 39
procNo = 40
procNo = 41
procNo = 42
procNo = 43
procNo = 44
procNo = 45
procNo = 46
procNo = 47
procNo = 48
procNo = 49
procNo = 50
procNo = 51
procNo = 52
procNo = 53
procNo = 54
procNo = 55
procNo = 56
procNo = 57
procNo = 58
procNo = 59
procNo = 60
procNo = 61
procNo = 62
procNo = 63
procNo = 64
procNo = 65
procNo = 66
procNo = 67
procNo = 68
procNo = 69
procNo = 70
procNo = 71
procNo = 72
procNo = 73
procNo = 74
procNo = 75
procNo = 76
procNo = 77
procNo = 78
procNo = 79
procNo = 80
Courant Number mean: 4.134521852246524e-11 max: 2.085039370078742e-05

Starting time loop

Courant Number mean: 4.134521852246524e-11 max: 2.085039370078742e-05
deltaT = 1.2e-09
Time = 1.2e-09

PIMPLE: iteration 1
diagonal:  Solving for rho, Initial residual = 0, Final residual = 0, No Iterations 0
DILUPBiCG:  Solving for Ux, Initial residual = 1, Final residual = 2.639924078088481e-20, No Iterations 2
DILUPBiCG:  Solving for Uy, Initial residual = 1, Final residual = 2.254784063702872e-20, No Iterations 2
DILUPBiCG:  Solving for Uz, Initial residual = 1, Final residual = 3.344178158606004e-20, No Iterations 2
DILUPBiCG:  Solving for e, Initial residual = 0.9999990154463813, Final residual = 1.345063698059839e-19, No Iterations 2
DILUPBiCG:  Solving for p, Initial residual = 0.9999996205957136, Final residual = 1.001701755037808e-09, No Iterations 1
diagonal:  Solving for rho, Initial residual = 0, Final residual = 0, No Iterations 0
time step continuity errors : sum local = 2.43875891314751e-16, global = -2.432408094003225e-16, cumulative = -2.432408094003225e-16
DILUPBiCG:  Solving for p, Initial residual = 1.178829850555843e-07, Final residual = 1.691651338024408e-16, No Iterations 1
diagonal:  Solving for rho, Initial residual = 0, Final residual = 0, No Iterations 0
time step continuity errors : sum local = 2.663657914345553e-16, global = -2.653513082605407e-16, cumulative = -5.085921176608632e-16
DILUPBiCG:  Solving for k, Initial residual = 0.9999999931410708, Final residual = 3.345413575124241e-20, No Iterations 2
ExecutionTime = 8.08 s  ClockTime = 9 s

ORIG_COMP_STEP = 6.581187709
ORIG_IO_STEP = 1.697509866000001
Courant Number mean: 4.961451094381343e-11 max: 2.501990921293872e-05
deltaT = 1.44e-09
Time = 2.64e-09

PIMPLE: iteration 1
diagonal:  Solving for rho, Initial residual = 0, Final residual = 0, No Iterations 0
DILUPBiCG:  Solving for Ux, Initial residual = 0.3749195240690024, Final residual = 6.00543090851572e-21, No Iterations 2
DILUPBiCG:  Solving for Uy, Initial residual = 0.374919524068507, Final residual = 5.131910761420529e-21, No Iterations 2
DILUPBiCG:  Solving for Uz, Initial residual = 0.2307601757169471, Final residual = 4.694124054761104e-21, No Iterations 2
DILUPBiCG:  Solving for e, Initial residual = 0.2307512303290673, Final residual = 1.883263832134608e-20, No Iterations 2
DILUPBiCG:  Solving for p, Initial residual = 0.2307584315135112, Final residual = 1.393715784703174e-10, No Iterations 1
diagonal:  Solving for rho, Initial residual = 0, Final residual = 0, No Iterations 0
time step continuity errors : sum local = 5.554305339448701e-16, global = -5.552580564515744e-16, cumulative = -1.063850174112438e-15
DILUPBiCG:  Solving for p, Initial residual = 7.804992198160182e-08, Final residual = 1.097543128941476e-14, No Iterations 1
diagonal:  Solving for rho, Initial residual = 0, Final residual = 0, No Iterations 0
time step continuity errors : sum local = 4.797842623589931e-16, global = -4.797796210782547e-16, cumulative = -1.543629795190692e-15
DILUPBiCG:  Solving for k, Initial residual = 0.7612500408909878, Final residual = 1.550583112525444e-20, No Iterations 2
ExecutionTime = 18.57 s  ClockTime = 21 s

ORIG_COMP_STEP = 10.559298786
ORIG_IO_STEP = 6.092749919000003
Courant Number mean: 5.953777282911772e-11 max: 3.002308059560314e-05
deltaT = 1.728e-09
Time = 4.368e-09

PIMPLE: iteration 1
diagonal:  Solving for rho, Initial residual = 0, Final residual = 0, No Iterations 0
DILUPBiCG:  Solving for Ux, Initial residual = 0.3231077183020585, Final residual = 7.590906209592496e-21, No Iterations 2
DILUPBiCG:  Solving for Uy, Initial residual = 0.3231077182499963, Final residual = 6.496841559788537e-21, No Iterations 2
DILUPBiCG:  Solving for Uz, Initial residual = 0.1406145040463068, Final residual = 4.225048612053697e-21, No Iterations 2
DILUPBiCG:  Solving for e, Initial residual = 0.1406066190024953, Final residual = 1.682770239557723e-20, No Iterations 2
DILUPBiCG:  Solving for p, Initial residual = 0.1406128476352539, Final residual = 1.223034640908917e-10, No Iterations 1
diagonal:  Solving for rho, Initial residual = 0, Final residual = 0, No Iterations 0
time step continuity errors : sum local = 6.634373735571679e-16, global = -6.631501884513237e-16, cumulative = -2.206779983642016e-15
DILUPBiCG:  Solving for p, Initial residual = 5.021004570763373e-08, Final residual = 5.993480666763555e-14, No Iterations 1
diagonal:  Solving for rho, Initial residual = 0, Final residual = 0, No Iterations 0
time step continuity errors : sum local = 6.450252370648677e-16, global = -6.450249323343143e-16, cumulative = -2.85180491597633e-15
DILUPBiCG:  Solving for k, Initial residual = 0.5223926727421633, Final residual = 1.574213934051796e-20, No Iterations 2
ExecutionTime = 28.66 s  ClockTime = 37 s

ORIG_COMP_STEP = 10.042524204
ORIG_IO_STEP = 2.089531846
Courant Number mean: 7.144584772668947e-11 max: 3.602653054273846e-05
deltaT = 2.0736e-09
Time = 6.4416e-09

PIMPLE: iteration 1
diagonal:  Solving for rho, Initial residual = 0, Final residual = 0, No Iterations 0
DILUPBiCG:  Solving for Ux, Initial residual = 0.2861774468456875, Final residual = 1.000520390094698e-20, No Iterations 2
DILUPBiCG:  Solving for Uy, Initial residual = 0.2861774467702855, Final residual = 8.586789872292014e-21, No Iterations 2
DILUPBiCG:  Solving for Uz, Initial residual = 0.1060780689588382, Final residual = 4.802048964315169e-21, No Iterations 2
DILUPBiCG:  Solving for e, Initial residual = 0.1060690419121323, Final residual = 1.888424735280107e-20, No Iterations 2
DILUPBiCG:  Solving for p, Initial residual = 0.1060760693888834, Final residual = 1.32874770435626e-10, No Iterations 1
diagonal:  Solving for rho, Initial residual = 0, Final residual = 0, No Iterations 0
time step continuity errors : sum local = 3.529406615998897e-16, global = -3.491759500204243e-16, cumulative = -3.200980865996755e-15
DILUPBiCG:  Solving for p, Initial residual = 3.579457756489838e-08, Final residual = 6.084163203191472e-13, No Iterations 1
diagonal:  Solving for rho, Initial residual = 0, Final residual = 0, No Iterations 0
time step continuity errors : sum local = 3.780884801990822e-16, global = -3.77334084552851e-16, cumulative = -3.578314950549606e-15
DILUPBiCG:  Solving for k, Initial residual = 0.3755564138248063, Final residual = 1.709716363327473e-20, No Iterations 2
ExecutionTime = 40.77 s  ClockTime = 51 s

ORIG_COMP_STEP = 12.146745047
ORIG_IO_STEP = 3.784130576000003
Courant Number mean: 8.573577152556018e-11 max: 4.323015923841612e-05
deltaT = 2.48832e-09
Time = 8.92992e-09

PIMPLE: iteration 1
diagonal:  Solving for rho, Initial residual = 0, Final residual = 0, No Iterations 0
DILUPBiCG:  Solving for Ux, Initial residual = 0.2580115697801917, Final residual = 1.362979388180987e-20, No Iterations 2
DILUPBiCG:  Solving for Uy, Initial residual = 0.2580115699027461, Final residual = 1.17440113969485e-20, No Iterations 2
DILUPBiCG:  Solving for Uz, Initial residual = 0.08805286406023961, Final residual = 6.128707842230052e-21, No Iterations 2
DILUPBiCG:  Solving for e, Initial residual = 0.08804226229667833, Final residual = 2.367487776471861e-20, No Iterations 2
DILUPBiCG:  Solving for p, Initial residual = 0.08805034165273992, Final residual = 1.588481642836328e-10, No Iterations 1
diagonal:  Solving for rho, Initial residual = 0, Final residual = 0, No Iterations 0
time step continuity errors : sum local = 1.231932157018078e-16, global = -4.885041151743437e-17, cumulative = -3.627165362067041e-15
DILUPBiCG:  Solving for p, Initial residual = 2.006777237656646e-08, Final residual = 3.0520458328385e-14, No Iterations 1
diagonal:  Solving for rho, Initial residual = 0, Final residual = 0, No Iterations 0
time step continuity errors : sum local = 1.124501861714714e-16, global = -3.11533018347707e-17, cumulative = -3.658318663901811e-15
DILUPBiCG:  Solving for k, Initial residual = 0.2906877194056358, Final residual = 2.043430002904453e-20, No Iterations 2
ExecutionTime = 58.67 s  ClockTime = 73 s

ORIG_COMP_STEP = 17.963246305
ORIG_IO_STEP = 5.328413451000003
Courant Number mean: 1.028840212228016e-10 max: 5.187377896431863e-05
deltaT = 2.985983999999999e-09
Time = 1.19159e-08

PIMPLE: iteration 1
diagonal:  Solving for rho, Initial residual = 0, Final residual = 0, No Iterations 0
DILUPBiCG:  Solving for Ux, Initial residual = 0.2369027230041412, Final residual = 1.921411260802196e-20, No Iterations 2
DILUPBiCG:  Solving for Uy, Initial residual = 0.2369027231038562, Final residual = 1.664136457161056e-20, No Iterations 2
DILUPBiCG:  Solving for Uz, Initial residual = 0.07712864145518979, Final residual = 8.426648450709821e-21, No Iterations 2
DILUPBiCG:  Solving for e, Initial residual = 0.07711582276417007, Final residual = 3.18270412206649e-20, No Iterations 2
DILUPBiCG:  Solving for p, Initial residual = 0.07712531762045287, Final residual = 2.003971779364559e-10, No Iterations 1
diagonal:  Solving for rho, Initial residual = 0, Final residual = 0, No Iterations 0
time step continuity errors : sum local = 3.644495257298865e-16, global = 3.628427752856298e-16, cumulative = -3.295475888616181e-15
DILUPBiCG:  Solving for p, Initial residual = 1.318811635417309e-08, Final residual = 2.574946919378019e-14, No Iterations 1
diagonal:  Solving for rho, Initial residual = 0, Final residual = 0, No Iterations 0
time step continuity errors : sum local = 3.772198338653723e-16, global = 3.716243011234145e-16, cumulative = -2.923851587492767e-15
DILUPBiCG:  Solving for k, Initial residual = 0.2385158222478609, Final residual = 2.64871861274241e-20, No Iterations 2
ExecutionTime = 66.48999999999999 s  ClockTime = 86 s

ORIG_COMP_STEP = 7.751966254999999
ORIG_IO_STEP = 2.782724196000004
Courant Number mean: 1.234624193975351e-10 max: 6.224506732903098e-05
deltaT = 3.583180799999999e-09
Time = 1.54991e-08

PIMPLE: iteration 1
diagonal:  Solving for rho, Initial residual = 0, Final residual = 0, No Iterations 0
DILUPBiCG:  Solving for Ux, Initial residual = 0.2210519478823927, Final residual = 2.799401566223772e-20, No Iterations 2
DILUPBiCG:  Solving for Uy, Initial residual = 0.2210519478593141, Final residual = 2.43989936703415e-20, No Iterations 2
DILUPBiCG:  Solving for Uz, Initial residual = 0.06989951241205913, Final residual = 1.224359919844978e-20, No Iterations 2
DILUPBiCG:  Solving for e, Initial residual = 0.06988417021090514, Final residual = 4.503306079703186e-20, No Iterations 2
DILUPBiCG:  Solving for p, Initial residual = 0.06989549236983275, Final residual = 2.61581202882369e-10, No Iterations 1
diagonal:  Solving for rho, Initial residual = 0, Final residual = 0, No Iterations 0
time step continuity errors : sum local = 3.23089525913408e-16, global = 3.211741068600451e-16, cumulative = -2.602677480632722e-15
DILUPBiCG:  Solving for p, Initial residual = 1.02375506041762e-08, Final residual = 1.803298718853711e-14, No Iterations 1
diagonal:  Solving for rho, Initial residual = 0, Final residual = 0, No Iterations 0
time step continuity errors : sum local = 3.142567526035129e-16, global = 3.131950244745471e-16, cumulative = -2.289482456158175e-15
DILUPBiCG:  Solving for k, Initial residual = 0.2042783053773305, Final residual = 3.670272229521666e-20, No Iterations 2
ExecutionTime = 77.15000000000001 s  ClockTime = 100 s

ORIG_COMP_STEP = 10.667106213
ORIG_IO_STEP = 6.355734550999998
Courant Number mean: 1.481572278482188e-10 max: 7.468909815230524e-05
deltaT = 4.299816959999999e-09
Time = 1.97989e-08

PIMPLE: iteration 1
diagonal:  Solving for rho, Initial residual = 0, Final residual = 0, No Iterations 0
DILUPBiCG:  Solving for Ux, Initial residual = 0.2090173760621097, Final residual = 4.207002064909797e-20, No Iterations 2
DILUPBiCG:  Solving for Uy, Initial residual = 0.2090173760074334, Final residual = 3.693733285412834e-20, No Iterations 2
DILUPBiCG:  Solving for Uz, Initial residual = 0.06483314997434571, Final residual = 1.860329773516045e-20, No Iterations 2
DILUPBiCG:  Solving for e, Initial residual = 0.06481487310129802, Final residual = 6.642340417864465e-20, No Iterations 2
DILUPBiCG:  Solving for p, Initial residual = 0.06482828674315883, Final residual = 3.494682425838765e-10, No Iterations 1
diagonal:  Solving for rho, Initial residual = 0, Final residual = 0, No Iterations 0
time step continuity errors : sum local = 1.403662004268576e-16, global = -6.840845202593217e-17, cumulative = -2.357890908184107e-15
DILUPBiCG:  Solving for p, Initial residual = 8.90541275653687e-09, Final residual = 1.704811077562396e-14, No Iterations 1
diagonal:  Solving for rho, Initial residual = 0, Final residual = 0, No Iterations 0
time step continuity errors : sum local = 1.369107141802842e-16, global = -8.629648124436101e-17, cumulative = -2.444187389428468e-15
DILUPBiCG:  Solving for k, Initial residual = 0.180590997602528, Final residual = 5.38267424591123e-20, No Iterations 2
ExecutionTime = 87.93000000000001 s  ClockTime = 117 s

ORIG_COMP_STEP = 10.771986755
ORIG_IO_STEP = 6.264567607999993
Courant Number mean: 1.777920721975943e-10 max: 8.961976116517039e-05
deltaT = 5.159780351999998e-09
Time = 2.49587e-08

PIMPLE: iteration 1
diagonal:  Solving for rho, Initial residual = 0, Final residual = 0, No Iterations 0
DILUPBiCG:  Solving for Ux, Initial residual = 0.1997579948831169, Final residual = 6.509033887128096e-20, No Iterations 2
DILUPBiCG:  Solving for Uy, Initial residual = 0.1997579947958896, Final residual = 5.761792338920285e-20, No Iterations 2
DILUPBiCG:  Solving for Uz, Initial residual = 0.06113782169705611, Final residual = 2.937237204694702e-20, No Iterations 2
DILUPBiCG:  Solving for e, Initial residual = 0.06111598145198496, Final residual = 1.015946669153114e-19, No Iterations 2
DILUPBiCG:  Solving for p, Initial residual = 0.06113200416115958, Final residual = 4.747059380738456e-10, No Iterations 1
diagonal:  Solving for rho, Initial residual = 0, Final residual = 0, No Iterations 0
time step continuity errors : sum local = 2.872057918704623e-16, global = -2.784791644232002e-16, cumulative = -2.722666553851669e-15
DILUPBiCG:  Solving for p, Initial residual = 6.133250906688442e-09, Final residual = 1.289578051661094e-14, No Iterations 1
diagonal:  Solving for rho, Initial residual = 0, Final residual = 0, No Iterations 0
time step continuity errors : sum local = 2.795008439244061e-16, global = -2.751455762594751e-16, cumulative = -2.997812130111144e-15
DILUPBiCG:  Solving for k, Initial residual = 0.1635155365054316, Final residual = 8.298880140566765e-20, No Iterations 2
ExecutionTime = 95.86 s  ClockTime = 131 s

ORIG_COMP_STEP = 7.869346201999988
ORIG_IO_STEP = 5.049979195999981
Courant Number mean: 2.133554705014447e-10 max: 0.000107533439730967
deltaT = 6.191736422399998e-09
Time = 3.11504e-08

PIMPLE: iteration 1
diagonal:  Solving for rho, Initial residual = 0, Final residual = 0, No Iterations 0
DILUPBiCG:  Solving for Ux, Initial residual = 0.192542016315399, Final residual = 1.034939731988976e-19, No Iterations 2
DILUPBiCG:  Solving for Uy, Initial residual = 0.19254201625002, Final residual = 9.241552425470269e-20, No Iterations 2
DILUPBiCG:  Solving for Uz, Initial residual = 0.05836292826105106, Final residual = 4.798358387367818e-20, No Iterations 2
DILUPBiCG:  Solving for e, Initial residual = 0.05833680913330457, Final residual = 1.606491673915891e-19, No Iterations 2
DILUPBiCG:  Solving for p, Initial residual = 0.05835595365233993, Final residual = 6.528089363379868e-10, No Iterations 1
diagonal:  Solving for rho, Initial residual = 0, Final residual = 0, No Iterations 0
time step continuity errors : sum local = 5.227692541367669e-16, global = -5.066871812551858e-16, cumulative = -3.504499311366329e-15
DILUPBiCG:  Solving for p, Initial residual = 4.293098364855393e-09, Final residual = 1.056153633612257e-14, No Iterations 1
diagonal:  Solving for rho, Initial residual = 0, Final residual = 0, No Iterations 0
time step continuity errors : sum local = 5.240560199173232e-16, global = -5.212896407977176e-16, cumulative = -4.025788952164047e-15
DILUPBiCG:  Solving for k, Initial residual = 0.150805822658359, Final residual = 1.338856494101402e-19, No Iterations 2
ExecutionTime = 110.88 s  ClockTime = 151 s

ORIG_COMP_STEP = 15.01449445
ORIG_IO_STEP = 1.456110920000015
Courant Number mean: 2.560338970675834e-10 max: 0.0001290253889150598
deltaT = 7.430083706879997e-09
Time = 3.85805e-08

PIMPLE: iteration 1
diagonal:  Solving for rho, Initial residual = 0, Final residual = 0, No Iterations 0
DILUPBiCG:  Solving for Ux, Initial residual = 0.1868538217650146, Final residual = 1.687932437216124e-19, No Iterations 2
DILUPBiCG:  Solving for Uy, Initial residual = 0.1868538217155466, Final residual = 1.520784945525224e-19, No Iterations 2
DILUPBiCG:  Solving for Uz, Initial residual = 0.05623297147315788, Final residual = 8.084418313203376e-20, No Iterations 2
DILUPBiCG:  Solving for e, Initial residual = 0.05620172103624526, Final residual = 2.621664557307782e-19, No Iterations 2
DILUPBiCG:  Solving for p, Initial residual = 0.0562246373242394, Final residual = 9.061714816348263e-10, No Iterations 1
diagonal:  Solving for rho, Initial residual = 0, Final residual = 0, No Iterations 0
time step continuity errors : sum local = 2.666073364560763e-16, global = 2.312912571235778e-16, cumulative = -3.794497695040469e-15
DILUPBiCG:  Solving for p, Initial residual = 5.48765184236319e-09, Final residual = 1.559620067244409e-14, No Iterations 1
diagonal:  Solving for rho, Initial residual = 0, Final residual = 0, No Iterations 0
time step continuity errors : sum local = 2.045678937310969e-16, global = 1.750815442783814e-16, cumulative = -3.619416150762088e-15
DILUPBiCG:  Solving for k, Initial residual = 0.1411037708907841, Final residual = 2.252319185663759e-19, No Iterations 2
ExecutionTime = 121.24 s  ClockTime = 163 s

ORIG_COMP_STEP = 10.39857957000001
ORIG_IO_STEP = 2.577782711999987
Courant Number mean: 3.072515049215036e-10 max: 0.0001548093385833503
deltaT = 8.916100448255996e-09
Time = 4.74966e-08

PIMPLE: iteration 1
diagonal:  Solving for rho, Initial residual = 0, Final residual = 0, No Iterations 0
DILUPBiCG:  Solving for Ux, Initial residual = 0.1823252199969294, Final residual = 2.850319093743731e-19, No Iterations 2
DILUPBiCG:  Solving for Uy, Initial residual = 0.1823252199274536, Final residual = 2.606153628932731e-19, No Iterations 2
DILUPBiCG:  Solving for Uz, Initial residual = 0.0545699297191502, Final residual = 1.400850077973153e-19, No Iterations 2
DILUPBiCG:  Solving for e, Initial residual = 0.05453252298385763, Final residual = 4.410455869310454e-19, No Iterations 2
DILUPBiCG:  Solving for p, Initial residual = 0.05455995735751366, Final residual = 1.267026854519408e-09, No Iterations 1
diagonal:  Solving for rho, Initial residual = 0, Final residual = 0, No Iterations 0
time step continuity errors : sum local = 1.707826692254097e-16, global = -6.944882541596823e-17, cumulative = -3.688864976178057e-15
DILUPBiCG:  Solving for p, Initial residual = 5.40431651504848e-09, Final residual = 1.801227457061358e-14, No Iterations 1
diagonal:  Solving for rho, Initial residual = 0, Final residual = 0, No Iterations 0
time step continuity errors : sum local = 1.540732499213446e-16, global = -1.102738588098064e-16, cumulative = -3.799138834987863e-15
DILUPBiCG:  Solving for k, Initial residual = 0.1335467959429217, Final residual = 3.939656315342438e-19, No Iterations 2
ExecutionTime = 132.83 s  ClockTime = 177 s

ORIG_COMP_STEP = 11.591195583
ORIG_IO_STEP = 8.594470689000019
Courant Number mean: 3.687178649884423e-10 max: 0.0001857409471672458
deltaT = 1.069932053790719e-08
Time = 5.81959e-08

PIMPLE: iteration 1
diagonal:  Solving for rho, Initial residual = 0, Final residual = 0, No Iterations 0
DILUPBiCG:  Solving for Ux, Initial residual = 0.1786887649190018, Final residual = 5.014783760890287e-19, No Iterations 2
DILUPBiCG:  Solving for Uy, Initial residual = 0.1786887648684836, Final residual = 4.621972812459794e-19, No Iterations 2
DILUPBiCG:  Solving for Uz, Initial residual = 0.05325359145778604, Final residual = 2.489955681929707e-19, No Iterations 2
DILUPBiCG:  Solving for e, Initial residual = 0.05320880615026282, Final residual = 7.642406148043247e-19, No Iterations 2
DILUPBiCG:  Solving for p, Initial residual = 0.05324165661861623, Final residual = 1.781744051846622e-09, No Iterations 1
diagonal:  Solving for rho, Initial residual = 0, Final residual = 0, No Iterations 0
time step continuity errors : sum local = 2.014047902683259e-16, global = -8.582086690093388e-17, cumulative = -3.884959701888797e-15
DILUPBiCG:  Solving for p, Initial residual = 4.269902675759885e-09, Final residual = 1.67876724519653e-14, No Iterations 1
diagonal:  Solving for rho, Initial residual = 0, Final residual = 0, No Iterations 0
time step continuity errors : sum local = 1.518540671197818e-16, global = -1.21744660939871e-16, cumulative = -4.006704362828668e-15
DILUPBiCG:  Solving for k, Initial residual = 0.1275639042342499, Final residual = 7.146347110394086e-19, No Iterations 2
ExecutionTime = 140.93 s  ClockTime = 194 s

ORIG_COMP_STEP = 7.993248077000004
ORIG_IO_STEP = 4.699120333999986
Courant Number mean: 4.424853672511335e-10 max: 0.0002228458487620226
deltaT = 1.283918464548863e-08
Time = 7.10351e-08

PIMPLE: iteration 1
diagonal:  Solving for rho, Initial residual = 0, Final residual = 0, No Iterations 0
DILUPBiCG:  Solving for Ux, Initial residual = 0.1757467247307286, Final residual = 9.060547330969286e-19, No Iterations 2
DILUPBiCG:  Solving for Uy, Initial residual = 0.1757467247044863, Final residual = 8.410476093355625e-19, No Iterations 2
DILUPBiCG:  Solving for Uz, Initial residual = 0.05219981725029835, Final residual = 4.528110677783339e-19, No Iterations 2
DILUPBiCG:  Solving for e, Initial residual = 0.05214614982764323, Final residual = 1.36292126632334e-18, No Iterations 2
DILUPBiCG:  Solving for p, Initial residual = 0.05218555297451068, Final residual = 2.517040702504814e-09, No Iterations 1
diagonal:  Solving for rho, Initial residual = 0, Final residual = 0, No Iterations 0
time step continuity errors : sum local = 5.301704132691794e-16, global = -4.116858419445307e-16, cumulative = -4.418390204773199e-15
DILUPBiCG:  Solving for p, Initial residual = 4.172785950203967e-09, Final residual = 1.944101498208648e-14, No Iterations 1
diagonal:  Solving for rho, Initial residual = 0, Final residual = 0, No Iterations 0
time step continuity errors : sum local = 4.291287886753849e-16, global = -4.290832080170784e-16, cumulative = -4.847473412790278e-15
DILUPBiCG:  Solving for k, Initial residual = 0.12276367930723, Final residual = 1.340914250141343e-18, No Iterations 2
ExecutionTime = 151.25 s  ClockTime = 209 s

ORIG_COMP_STEP = 10.30622608100001
ORIG_IO_STEP = 4.322908321999989
Courant Number mean: 5.310182840479397e-10 max: 0.0002673531757326263
deltaT = 1.540702157458636e-08
Time = 8.64421e-08

PIMPLE: iteration 1
diagonal:  Solving for rho, Initial residual = 0, Final residual = 0, No Iterations 0
DILUPBiCG:  Solving for Ux, Initial residual = 0.1733503985826846, Final residual = 1.664609435902579e-18, No Iterations 2
DILUPBiCG:  Solving for Uy, Initial residual = 0.1733503985883182, Final residual = 1.56068359908665e-18, No Iterations 2
DILUPBiCG:  Solving for Uz, Initial residual = 0.05134793187277174, Final residual = 8.402306605091103e-19, No Iterations 2
DILUPBiCG:  Solving for e, Initial residual = 0.05128367465408561, Final residual = 2.499324623416376e-18, No Iterations 2
DILUPBiCG:  Solving for p, Initial residual = 0.05133091610723997, Final residual = 3.568960421023207e-09, No Iterations 1
diagonal:  Solving for rho, Initial residual = 0, Final residual = 0, No Iterations 0
time step continuity errors : sum local = 4.047237562754909e-16, global = 2.671385920961576e-16, cumulative = -4.58033482069412e-15
DILUPBiCG:  Solving for p, Initial residual = 5.116895631949929e-09, Final residual = 2.83372048388601e-14, No Iterations 1
diagonal:  Solving for rho, Initial residual = 0, Final residual = 0, No Iterations 0
time step continuity errors : sum local = 2.411413958529219e-16, global = 2.334574157522024e-16, cumulative = -4.346877404941918e-15
DILUPBiCG:  Solving for k, Initial residual = 0.1188696863729472, Final residual = 2.595896870857964e-18, No Iterations 2
ExecutionTime = 157.9 s  ClockTime = 220 s

ORIG_COMP_STEP = 6.542604582999985
ORIG_IO_STEP = 1.596671635000007
Courant Number mean: 6.372759377271622e-10 max: 0.0003207356037221298
deltaT = 1.848842588950363e-08
Time = 1.04931e-07

PIMPLE: iteration 1
diagonal:  Solving for rho, Initial residual = 0, Final residual = 0, No Iterations 0
DILUPBiCG:  Solving for Ux, Initial residual = 0.1713861774225666, Final residual = 3.098534687557759e-18, No Iterations 2
DILUPBiCG:  Solving for Uy, Initial residual = 0.1713861774374294, Final residual = 2.931229899292347e-18, No Iterations 2
DILUPBiCG:  Solving for Uz, Initial residual = 0.05065305861546219, Final residual = 1.587748108925767e-18, No Iterations 2
DILUPBiCG:  Solving for e, Initial residual = 0.05057613450568671, Final residual = 4.70802740356841e-18, No Iterations 2
DILUPBiCG:  Solving for p, Initial residual = 0.0506327808151306, Final residual = 5.075848347263298e-09, No Iterations 1
diagonal:  Solving for rho, Initial residual = 0, Final residual = 0, No Iterations 0
time step continuity errors : sum local = 5.72022316618688e-16, global = 3.57614967528865e-16, cumulative = -3.989262437413053e-15
DILUPBiCG:  Solving for p, Initial residual = 6.248792795343997e-09, Final residual = 4.129763332126657e-14, No Iterations 1
diagonal:  Solving for rho, Initial residual = 0, Final residual = 0, No Iterations 0
time step continuity errors : sum local = 2.813446494357502e-16, global = 2.771991770635393e-16, cumulative = -3.712063260349514e-15
DILUPBiCG:  Solving for k, Initial residual = 0.1156816090490299, Final residual = 5.171307907520283e-18, No Iterations 2
ExecutionTime = 169.27 s  ClockTime = 233 s

ORIG_COMP_STEP = 11.403199763
ORIG_IO_STEP = 6.370093061999995
Courant Number mean: 7.648129722847393e-10 max: 0.0003847571616184497
deltaT = 2.218611106740435e-08
Time = 1.27117e-07

PIMPLE: iteration 1
diagonal:  Solving for rho, Initial residual = 0, Final residual = 0, No Iterations 0
DILUPBiCG:  Solving for Ux, Initial residual = 0.1697659846900436, Final residual = 5.816804560111833e-18, No Iterations 2
DILUPBiCG:  Solving for Uy, Initial residual = 0.169765984701864, Final residual = 5.549612969835552e-18, No Iterations 2
DILUPBiCG:  Solving for Uz, Initial residual = 0.05008126763533707, Final residual = 3.046934104600291e-18, No Iterations 2
DILUPBiCG:  Solving for e, Initial residual = 0.04998919218114345, Final residual = 9.098619276086554e-18, No Iterations 2
DILUPBiCG:  Solving for p, Initial residual = 0.05005712922096077, Final residual = 7.237121751580241e-09, No Iterations 1
diagonal:  Solving for rho, Initial residual = 0, Final residual = 0, No Iterations 0
time step continuity errors : sum local = 7.354136152475198e-16, global = -1.057243247297773e-16, cumulative = -3.81778758507929e-15
DILUPBiCG:  Solving for p, Initial residual = 7.898313102105212e-09, Final residual = 6.251131568473809e-14, No Iterations 1
diagonal:  Solving for rho, Initial residual = 0, Final residual = 0, No Iterations 0
time step continuity errors : sum local = 2.490649284905884e-16, global = -2.302344909028931e-16, cumulative = -4.048022075982183e-15
DILUPBiCG:  Solving for k, Initial residual = 0.1130510224538538, Final residual = 1.057264489075628e-17, No Iterations 2
ExecutionTime = 177.62 s  ClockTime = 247 s

ORIG_COMP_STEP = 8.292312460000005
ORIG_IO_STEP = 4.398996949000008
Courant Number mean: 9.179004421142769e-10 max: 0.0004615302830703816
deltaT = 2.662333328088522e-08
Time = 1.5374e-07

PIMPLE: iteration 1
diagonal:  Solving for rho, Initial residual = 0, Final residual = 0, No Iterations 0
DILUPBiCG:  Solving for Ux, Initial residual = 0.1684205943188654, Final residual = 1.125918645710879e-17, No Iterations 2
DILUPBiCG:  Solving for Uy, Initial residual = 0.1684205943299447, Final residual = 1.07256538482031e-17, No Iterations 2
DILUPBiCG:  Solving for Uz, Initial residual = 0.04960639577116515, Final residual = 5.909553888255072e-18, No Iterations 2
DILUPBiCG:  Solving for e, Initial residual = 0.04949620267411945, Final residual = 1.801412483602798e-17, No Iterations 2
DILUPBiCG:  Solving for p, Initial residual = 0.0495777037631184, Final residual = 1.034044490686836e-08, No Iterations 1
diagonal:  Solving for rho, Initial residual = 0, Final residual = 0, No Iterations 0
time step continuity errors : sum local = 1.437145887017119e-15, global = -3.760651233481792e-16, cumulative = -4.424087199330362e-15
DILUPBiCG:  Solving for p, Initial residual = 1.072735781828187e-08, Final residual = 1.019471909540893e-13, No Iterations 1
diagonal:  Solving for rho, Initial residual = 0, Final residual = 0, No Iterations 0
time step continuity errors : sum local = 5.877837167267159e-16, global = -5.848473331496341e-16, cumulative = -5.008934532479996e-15
DILUPBiCG:  Solving for k, Initial residual = 0.1108658386646444, Final residual = 2.212519778015109e-17, No Iterations 2
ExecutionTime = 185.01 s  ClockTime = 259 s

ORIG_COMP_STEP = 7.319479984999987
ORIG_IO_STEP = 1.400139421000006
Courant Number mean: 1.101672360569821e-09 max: 0.0005535838593398171
deltaT = 3.194799993706226e-08
Time = 1.85688e-07

PIMPLE: iteration 1
diagonal:  Solving for rho, Initial residual = 0, Final residual = 0, No Iterations 0
DILUPBiCG:  Solving for Ux, Initial residual = 0.1672948891413144, Final residual = 2.490360239024139e-17, No Iterations 2
DILUPBiCG:  Solving for Uy, Initial residual = 0.1672948891492007, Final residual = 2.397937134569046e-17, No Iterations 2
DILUPBiCG:  Solving for Uz, Initial residual = 0.04920787829663138, Final residual = 1.153524155102165e-17, No Iterations 2
DILUPBiCG:  Solving for e, Initial residual = 0.04907605863750711, Final residual = 3.648070022947781e-17, No Iterations 2
DILUPBiCG:  Solving for p, Initial residual = 0.04917384490322646, Final residual = 1.480111173526482e-08, No Iterations 1
diagonal:  Solving for rho, Initial residual = 0, Final residual = 0, No Iterations 0
time step continuity errors : sum local = 1.590965595561781e-15, global = 3.397122387791045e-16, cumulative = -4.669222293700892e-15
DILUPBiCG:  Solving for p, Initial residual = 1.423174698863787e-08, Final residual = 1.629648980776797e-13, No Iterations 1
diagonal:  Solving for rho, Initial residual = 0, Final residual = 0, No Iterations 0
time step continuity errors : sum local = 1.144250435919015e-16, global = -4.73676329738498e-17, cumulative = -4.716589926674742e-15
DILUPBiCG:  Solving for k, Initial residual = 0.1090398956998024, Final residual = 4.727040394256982e-17, No Iterations 2
ExecutionTime = 195.35 s  ClockTime = 271 s

ORIG_COMP_STEP = 10.348015283
ORIG_IO_STEP = 3.262129919000017
Courant Number mean: 1.322303588064044e-09 max: 0.0006639444024474661
deltaT = 3.833759992447472e-08
Time = 2.24026e-07

PIMPLE: iteration 1
diagonal:  Solving for rho, Initial residual = 0, Final residual = 0, No Iterations 0
DILUPBiCG:  Solving for Ux, Initial residual = 0.1663444151196875, Final residual = 5.921313960466781e-17, No Iterations 2
DILUPBiCG:  Solving for Uy, Initial residual = 0.1663444151234575, Final residual = 5.754983534155641e-17, No Iterations 2
DILUPBiCG:  Solving for Uz, Initial residual = 0.04886928998827306, Final residual = 2.265590966556396e-17, No Iterations 2
DILUPBiCG:  Solving for e, Initial residual = 0.04871167217296136, Final residual = 7.543671923731064e-17, No Iterations 2
DILUPBiCG:  Solving for p, Initial residual = 0.04882900381816295, Final residual = 2.121919456232829e-08, No Iterations 1
diagonal:  Solving for rho, Initial residual = 0, Final residual = 0, No Iterations 0
time step continuity errors : sum local = 2.666763227787381e-15, global = 7.479296079029169e-16, cumulative = -3.968660318771825e-15
DILUPBiCG:  Solving for p, Initial residual = 1.989392990487857e-08, Final residual = 2.751857671541104e-13, No Iterations 1
diagonal:  Solving for rho, Initial residual = 0, Final residual = 0, No Iterations 0
time step continuity errors : sum local = 1.361242199045728e-16, global = 8.372763056885487e-17, cumulative = -3.88493268820297e-15
DILUPBiCG:  Solving for k, Initial residual = 0.1075059387713967, Final residual = 1.028531743604539e-16, No Iterations 2
ExecutionTime = 202.76 s  ClockTime = 282 s

ORIG_COMP_STEP = 7.403899045000003
ORIG_IO_STEP = 4.858633486999963
Courant Number mean: 1.587226623916134e-09 max: 0.0007962328698137055
deltaT = 4.600511990936966e-08
Time = 2.70031e-07

PIMPLE: iteration 1
diagonal:  Solving for rho, Initial residual = 0, Final residual = 0, No Iterations 0
DILUPBiCG:  Solving for Ux, Initial residual = 0.1655328481694541, Final residual = 1.491040695549639e-16, No Iterations 2
DILUPBiCG:  Solving for Uy, Initial residual = 0.1655328481707227, Final residual = 1.461697050232483e-16, No Iterations 2
DILUPBiCG:  Solving for Uz, Initial residual = 0.04857727213995701, Final residual = 4.442150546228871e-17, No Iterations 2
DILUPBiCG:  Solving for e, Initial residual = 0.04838891052152414, Final residual = 1.589984450081521e-16, No Iterations 2
DILUPBiCG:  Solving for p, Initial residual = 0.04852970960213458, Final residual = 3.046261727120871e-08, No Iterations 1
diagonal:  Solving for rho, Initial residual = 0, Final residual = 0, No Iterations 0
time step continuity errors : sum local = 4.637597720889956e-15, global = 8.565267054437146e-16, cumulative = -3.028405982759256e-15
DILUPBiCG:  Solving for p, Initial residual = 2.838456005008999e-08, Final residual = 4.756315698935893e-13, No Iterations 1
diagonal:  Solving for rho, Initial residual = 0, Final residual = 0, No Iterations 0
time step continuity errors : sum local = 2.651772367576105e-16, global = -2.578248739308755e-16, cumulative = -3.286230856690131e-15
DILUPBiCG:  Solving for k, Initial residual = 0.1062108298579535, Final residual = 2.273879425911883e-16, No Iterations 2
ExecutionTime = 210.62 s  ClockTime = 294 s

ORIG_COMP_STEP = 7.818091659000004
ORIG_IO_STEP = 4.258148301999995
Courant Number mean: 1.90539721752629e-09 max: 0.0009547802819188109
deltaT = 5.520614389124359e-08
Time = 3.25237e-07

PIMPLE: iteration 1
diagonal:  Solving for rho, Initial residual = 0, Final residual = 0, No Iterations 0
DILUPBiCG:  Solving for Ux, Initial residual = 0.1648300893902034, Final residual = 4.162068325498471e-16, No Iterations 2
DILUPBiCG:  Solving for Uy, Initial residual = 0.1648300893892541, Final residual = 4.109685396984034e-16, No Iterations 2
DILUPBiCG:  Solving for Uz, Initial residual = 0.0483207401842785, Final residual = 8.774730234875317e-17, No Iterations 2
DILUPBiCG:  Solving for e, Initial residual = 0.04809575535049417, Final residual = 3.409526164969185e-16, No Iterations 2
DILUPBiCG:  Solving for p, Initial residual = 0.0482647527715006, Final residual = 4.378805138778174e-08, No Iterations 1
diagonal:  Solving for rho, Initial residual = 0, Final residual = 0, No Iterations 0
time step continuity errors : sum local = 7.783407021186513e-15, global = 2.128430718749506e-15, cumulative = -1.157800137940626e-15
DILUPBiCG:  Solving for p, Initial residual = 4.073347811280112e-08, Final residual = 8.294879035516845e-13, No Iterations 1
diagonal:  Solving for rho, Initial residual = 0, Final residual = 0, No Iterations 0
time step continuity errors : sum local = 2.6980721769066e-16, global = 2.155109385735406e-16, cumulative = -9.422891993670852e-16
DILUPBiCG:  Solving for k, Initial residual = 0.1051120051457684, Final residual = 5.096999500633719e-16, No Iterations 2
ExecutionTime = 217.74 s  ClockTime = 306 s

ORIG_COMP_STEP = 7.050329662000024
ORIG_IO_STEP = 3.12437262200001
Courant Number mean: 2.287622078255218e-09 max: 0.00114476605899441
deltaT = 6.62473726694923e-08
Time = 3.91484e-07

PIMPLE: iteration 1
diagonal:  Solving for rho, Initial residual = 0, Final residual = 0, No Iterations 0
DILUPBiCG:  Solving for Ux, Initial residual = 0.1642108139512202, Final residual = 1.81352664295182e-15, No Iterations 2
DILUPBiCG:  Solving for Uy, Initial residual = 0.164210813949032, Final residual = 1.803878415309153e-15, No Iterations 2
DILUPBiCG:  Solving for Uz, Initial residual = 0.04809030569387568, Final residual = 2.064215818058997e-16, No Iterations 2
DILUPBiCG:  Solving for e, Initial residual = 0.04782179770484185, Final residual = 7.424762145723359e-16, No Iterations 2
DILUPBiCG:  Solving for p, Initial residual = 0.04802468058435876, Final residual = 6.301729375518317e-08, No Iterations 1
diagonal:  Solving for rho, Initial residual = 0, Final residual = 0, No Iterations 0
time step continuity errors : sum local = 1.330604973931129e-14, global = 3.595407640871677e-15, cumulative = 2.653118441504592e-15
DILUPBiCG:  Solving for p, Initial residual = 5.881056344700572e-08, Final residual = 3.807151029722491e-19, No Iterations 2
diagonal:  Solving for rho, Initial residual = 0, Final residual = 0, No Iterations 0
time step continuity errors : sum local = 2.26389671298765e-16, global = 2.136289860170604e-16, cumulative = 2.866747427521652e-15
DILUPBiCG:  Solving for k, Initial residual = 0.1041750098998162, Final residual = 1.156190089601567e-15, No Iterations 2
ExecutionTime = 225.64 s  ClockTime = 317 s

ORIG_COMP_STEP = 7.884282028999962
ORIG_IO_STEP = 4.152594172000022
Courant Number mean: 2.746966890377487e-09 max: 0.001372384141132362
deltaT = 7.949684720339076e-08
Time = 4.70981e-07

PIMPLE: iteration 1
diagonal:  Solving for rho, Initial residual = 0, Final residual = 0, No Iterations 0
DILUPBiCG:  Solving for Ux, Initial residual = 0.1636533488594409, Final residual = 1.144159077210771e-14, No Iterations 2
DILUPBiCG:  Solving for Uy, Initial residual = 0.1636533488566627, Final residual = 1.162614755961071e-14, No Iterations 2
DILUPBiCG:  Solving for Uz, Initial residual = 0.04787783833716284, Final residual = 6.107835551605348e-16, No Iterations 2
DILUPBiCG:  Solving for e, Initial residual = 0.04755770295817333, Final residual = 1.638942854575577e-15, No Iterations 2
DILUPBiCG:  Solving for p, Initial residual = 0.04780129783540556, Final residual = 9.079494872660658e-08, No Iterations 1
diagonal:  Solving for rho, Initial residual = 0, Final residual = 0, No Iterations 0
time step continuity errors : sum local = 2.282871508879602e-14, global = 6.081069201076965e-15, cumulative = 8.947816628598616e-15
DILUPBiCG:  Solving for p, Initial residual = 8.541926676805737e-08, Final residual = 1.167809368083894e-18, No Iterations 2
diagonal:  Solving for rho, Initial residual = 0, Final residual = 0, No Iterations 0
time step continuity errors : sum local = 1.457802724025792e-16, global = 1.218683129222097e-16, cumulative = 9.069684941520825e-15
DILUPBiCG:  Solving for k, Initial residual = 0.1033716719604457, Final residual = 2.649510417767619e-15, No Iterations 2
ExecutionTime = 236.93 s  ClockTime = 332 s

ORIG_COMP_STEP = 11.27906634600004
ORIG_IO_STEP = 7.881626142000016
Courant Number mean: 3.299270210825531e-09 max: 0.001645043660237692
deltaT = 9.53962166440689e-08
Time = 5.66377e-07

PIMPLE: iteration 1
diagonal:  Solving for rho, Initial residual = 0, Final residual = 0, No Iterations 0
DILUPBiCG:  Solving for Ux, Initial residual = 0.1631388013980042, Final residual = 2.890282690122178e-15, No Iterations 2
DILUPBiCG:  Solving for Uy, Initial residual = 0.1631388013958706, Final residual = 2.891961564195525e-15, No Iterations 2
DILUPBiCG:  Solving for Uz, Initial residual = 0.04767612719617793, Final residual = 1.914065002261948e-15, No Iterations 2
DILUPBiCG:  Solving for e, Initial residual = 0.04729490948073262, Final residual = 3.66070795481404e-15, No Iterations 2
DILUPBiCG:  Solving for p, Initial residual = 0.04758739298786986, Final residual = 1.309659420365104e-07, No Iterations 1
diagonal:  Solving for rho, Initial residual = 0, Final residual = 0, No Iterations 0
time step continuity errors : sum local = 3.974104679306041e-14, global = 1.090746415399411e-14, cumulative = 1.997714909551494e-14
DILUPBiCG:  Solving for p, Initial residual = 1.243048262143268e-07, Final residual = 3.600733426757846e-18, No Iterations 2
diagonal:  Solving for rho, Initial residual = 0, Final residual = 0, No Iterations 0
time step continuity errors : sum local = 5.064011985211342e-16, global = 4.981807523311694e-16, cumulative = 2.047532984784611e-14
DILUPBiCG:  Solving for k, Initial residual = 0.1026787464360653, Final residual = 6.124858873778914e-15, No Iterations 2
ExecutionTime = 243.68 s  ClockTime = 347 s

ORIG_COMP_STEP = 6.660219579999989
ORIG_IO_STEP = 1.747218974999953
Courant Number mean: 3.9638000609466e-09 max: 0.001971613580789106
deltaT = 1.144754599728827e-07
Time = 6.80853e-07

PIMPLE: iteration 1
diagonal:  Solving for rho, Initial residual = 0, Final residual = 0, No Iterations 0
DILUPBiCG:  Solving for Ux, Initial residual = 0.1626503789613427, Final residual = 1.068488044872036e-14, No Iterations 2
DILUPBiCG:  Solving for Uy, Initial residual = 0.1626503789595687, Final residual = 1.06718191126787e-14, No Iterations 2
DILUPBiCG:  Solving for Uz, Initial residual = 0.04747862115125164, Final residual = 6.790794388602707e-15, No Iterations 2
DILUPBiCG:  Solving for e, Initial residual = 0.04702535168773767, Final residual = 8.259361384296251e-15, No Iterations 2
DILUPBiCG:  Solving for p, Initial residual = 0.04737651157917284, Final residual = 1.89129804800579e-07, No Iterations 1
diagonal:  Solving for rho, Initial residual = 0, Final residual = 0, No Iterations 0
time step continuity errors : sum local = 6.812274255783937e-14, global = 1.811023297794197e-14, cumulative = 3.858556282578808e-14
DILUPBiCG:  Solving for p, Initial residual = 1.816591425248725e-07, Final residual = 1.118898422130352e-17, No Iterations 2
diagonal:  Solving for rho, Initial residual = 0, Final residual = 0, No Iterations 0
time step continuity errors : sum local = 1.805883146441812e-16, global = -1.442771044593248e-16, cumulative = 3.844128572132875e-14
DILUPBiCG:  Solving for k, Initial residual = 0.102076888228668, Final residual = 1.426520833630768e-14, No Iterations 2
ExecutionTime = 253.95 s  ClockTime = 359 s

ORIG_COMP_STEP = 10.278313234
ORIG_IO_STEP = 2.272556572999974
Courant Number mean: 4.764107406340697e-09 max: 0.002362724964306313
deltaT = 1.373705519674592e-07
Time = 8.18223e-07

PIMPLE: iteration 1
diagonal:  Solving for rho, Initial residual = 0, Final residual = 0, No Iterations 0
DILUPBiCG:  Solving for Ux, Initial residual = 0.1621728690071609, Final residual = 3.380063026247915e-14, No Iterations 2
DILUPBiCG:  Solving for Uy, Initial residual = 0.1621728690055008, Final residual = 3.377188358621793e-14, No Iterations 2
DILUPBiCG:  Solving for Uz, Initial residual = 0.04727922534919114, Final residual = 4.027699447718205e-14, No Iterations 2
DILUPBiCG:  Solving for e, Initial residual = 0.0467412674203487, Final residual = 1.879432447990962e-14, No Iterations 2
DILUPBiCG:  Solving for p, Initial residual = 0.04716279865342386, Final residual = 2.734565400331298e-07, No Iterations 1
diagonal:  Solving for rho, Initial residual = 0, Final residual = 0, No Iterations 0
time step continuity errors : sum local = 1.179918008155082e-13, global = 3.242136450307593e-14, cumulative = 7.086265022440468e-14
DILUPBiCG:  Solving for p, Initial residual = 2.663753619285214e-07, Final residual = 3.503231159271183e-17, No Iterations 2
diagonal:  Solving for rho, Initial residual = 0, Final residual = 0, No Iterations 0
time step continuity errors : sum local = 2.758786578327824e-16, global = 2.657659289675624e-16, cumulative = 7.112841615337223e-14
DILUPBiCG:  Solving for k, Initial residual = 0.1015499011533258, Final residual = 3.343992559674283e-14, No Iterations 2
ExecutionTime = 262.21 s  ClockTime = 370 s

ORIG_COMP_STEP = 8.259784102000026
ORIG_IO_STEP = 1.633730539999988
Courant Number mean: 5.729157945668538e-09 max: 0.002831151431733648
deltaT = 1.64844662360951e-07
Time = 9.83068e-07

PIMPLE: iteration 1
diagonal:  Solving for rho, Initial residual = 0, Final residual = 0, No Iterations 0
DILUPBiCG:  Solving for Ux, Initial residual = 0.1616922641904028, Final residual = 1.078305847267702e-13, No Iterations 2
DILUPBiCG:  Solving for Uy, Initial residual = 0.1616922641891627, Final residual = 1.077754092252012e-13, No Iterations 2
DILUPBiCG:  Solving for Uz, Initial residual = 0.0470721931080272, Final residual = 9.963669270825182e-14, No Iterations 2
DILUPBiCG:  Solving for e, Initial residual = 0.04643511540488716, Final residual = 4.306331218450385e-14, No Iterations 2
DILUPBiCG:  Solving for p, Initial residual = 0.04694093756835125, Final residual = 3.958904947661507e-07, No Iterations 1
diagonal:  Solving for rho, Initial residual = 0, Final residual = 0, No Iterations 0
time step continuity errors : sum local = 2.043135184698874e-13, global = 5.701848070777576e-14, cumulative = 1.28146896861148e-13
DILUPBiCG:  Solving for p, Initial residual = 3.916608099070994e-07, Final residual = 1.10514564414383e-16, No Iterations 2
diagonal:  Solving for rho, Initial residual = 0, Final residual = 0, No Iterations 0
time step continuity errors : sum local = 2.008970586455186e-16, global = 1.919116570686462e-16, cumulative = 1.283388085182166e-13
DILUPBiCG:  Solving for k, Initial residual = 0.1010841810074733, Final residual = 7.883075074372537e-14, No Iterations 2
ExecutionTime = 270.39 s  ClockTime = 379 s

ORIG_COMP_STEP = 8.155113734999986
ORIG_IO_STEP = 4.203300938000041
Courant Number mean: 6.894866665667875e-09 max: 0.003392299833723769
deltaT = 1.978135948331412e-07
Time = 1.18088e-06

PIMPLE: iteration 1
diagonal:  Solving for rho, Initial residual = 0, Final residual = 0, No Iterations 0
DILUPBiCG:  Solving for Ux, Initial residual = 0.1611955304390672, Final residual = 3.363443394576619e-13, No Iterations 2
DILUPBiCG:  Solving for Uy, Initial residual = 0.1611955304379624, Final residual = 3.362432344743347e-13, No Iterations 2
DILUPBiCG:  Solving for Uz, Initial residual = 0.04685203757392611, Final residual = 8.106693646983987e-14, No Iterations 2
DILUPBiCG:  Solving for e, Initial residual = 0.04609956089113901, Final residual = 9.922960008463301e-14, No Iterations 2
DILUPBiCG:  Solving for p, Initial residual = 0.04670615228256952, Final residual = 5.739304827878357e-07, No Iterations 1
diagonal:  Solving for rho, Initial residual = 0, Final residual = 0, No Iterations 0
time step continuity errors : sum local = 3.545344687161028e-13, global = 1.000499378993398e-13, cumulative = 2.283887464175565e-13
DILUPBiCG:  Solving for p, Initial residual = 5.773086682109839e-07, Final residual = 3.514527286068528e-16, No Iterations 2
diagonal:  Solving for rho, Initial residual = 0, Final residual = 0, No Iterations 0
time step continuity errors : sum local = 5.778264738855159e-16, global = -5.755141435093879e-16, cumulative = 2.278132322740471e-13
DILUPBiCG:  Solving for k, Initial residual = 0.1006682619337617, Final residual = 1.867583804629137e-13, No Iterations 2
ExecutionTime = 277.24 s  ClockTime = 390 s

ORIG_COMP_STEP = 6.777851496000039
ORIG_IO_STEP = 1.808501257999978
Courant Number mean: 8.306228051021503e-09 max: 0.004064862143466259
deltaT = 2.373763137997695e-07
Time = 1.41826e-06

PIMPLE: iteration 1
diagonal:  Solving for rho, Initial residual = 0, Final residual = 0, No Iterations 0
DILUPBiCG:  Solving for Ux, Initial residual = 0.1606705339482394, Final residual = 2.231856494271761e-19, No Iterations 3
DILUPBiCG:  Solving for Uy, Initial residual = 0.1606705339473838, Final residual = 2.26480508133901e-19, No Iterations 3
DILUPBiCG:  Solving for Uz, Initial residual = 0.04661356795230918, Final residual = 1.888344197409782e-13, No Iterations 2
DILUPBiCG:  Solving for e, Initial residual = 0.04572760571285456, Final residual = 2.296487723587257e-13, No Iterations 2
DILUPBiCG:  Solving for p, Initial residual = 0.04645430728868313, Final residual = 8.332660760172333e-07, No Iterations 1
diagonal:  Solving for rho, Initial residual = 0, Final residual = 0, No Iterations 0
time step continuity errors : sum local = 6.1446130148671e-13, global = 1.788041593631424e-13, cumulative = 4.066173916371895e-13
DILUPBiCG:  Solving for p, Initial residual = 8.531344858691507e-07, Final residual = 1.127808263562303e-15, No Iterations 2
diagonal:  Solving for rho, Initial residual = 0, Final residual = 0, No Iterations 0
time step continuity errors : sum local = 1.272067483985104e-16, global = -6.953774611581983e-19, cumulative = 4.066166962597284e-13
DILUPBiCG:  Solving for k, Initial residual = 0.1002924923832719, Final residual = 4.444148845535615e-13, No Iterations 2
ExecutionTime = 286.66 s  ClockTime = 402 s

ORIG_COMP_STEP = 9.439871496000023
ORIG_IO_STEP = 2.083696497999995
Courant Number mean: 1.002034394660058e-08 max: 0.00487171116725973
deltaT = 2.848515765597234e-07
Time = 1.70311e-06

PIMPLE: iteration 1
diagonal:  Solving for rho, Initial residual = 0, Final residual = 0, No Iterations 0
DILUPBiCG:  Solving for Ux, Initial residual = 0.1601061568384382, Final residual = 7.79023309522293e-19, No Iterations 3
DILUPBiCG:  Solving for Uy, Initial residual = 0.160106156837712, Final residual = 7.920999697606447e-19, No Iterations 3
DILUPBiCG:  Solving for Uz, Initial residual = 0.04635203042904652, Final residual = 5.296785102668322e-13, No Iterations 2
DILUPBiCG:  Solving for e, Initial residual = 0.04531285987718453, Final residual = 5.331723516993686e-13, No Iterations 2
DILUPBiCG:  Solving for p, Initial residual = 0.04618212265712619, Final residual = 1.211683795931509e-06, No Iterations 1
diagonal:  Solving for rho, Initial residual = 0, Final residual = 0, No Iterations 0
time step continuity errors : sum local = 1.067044999900857e-12, global = 3.190954821383012e-13, cumulative = 7.257121783980297e-13
DILUPBiCG:  Solving for p, Initial residual = 1.263418724498553e-06, Final residual = 3.653201614026727e-15, No Iterations 2
diagonal:  Solving for rho, Initial residual = 0, Final residual = 0, No Iterations 0
time step continuity errors : sum local = 1.531222762580889e-16, global = 1.225696202030546e-16, cumulative = 7.258347480182327e-13
DILUPBiCG:  Solving for k, Initial residual = 0.09994885837372162, Final residual = 2.868233633163316e-18, No Iterations 3
ExecutionTime = 296.81 s  ClockTime = 414 s

ORIG_COMP_STEP = 10.15837682999995
ORIG_IO_STEP = 3.764035447000026
Courant Number mean: 1.211082482331513e-08 max: 0.005841174883411188
deltaT = 3.41821891871668e-07
Time = 2.04493e-06

PIMPLE: iteration 1
diagonal:  Solving for rho, Initial residual = 0, Final residual = 0, No Iterations 0
DILUPBiCG:  Solving for Ux, Initial residual = 0.1594926457882519, Final residual = 2.730847997087214e-18, No Iterations 3
DILUPBiCG:  Solving for Uy, Initial residual = 0.1594926457876651, Final residual = 2.784580042151542e-18, No Iterations 3
DILUPBiCG:  Solving for Uz, Initial residual = 0.04606335021795648, Final residual = 1.211655463374187e-17, No Iterations 3
DILUPBiCG:  Solving for e, Initial residual = 0.04485005529699973, Final residual = 4.664082737813116e-18, No Iterations 3
DILUPBiCG:  Solving for p, Initial residual = 0.04588749857391418, Final residual = 1.764846662530568e-06, No Iterations 1
diagonal:  Solving for rho, Initial residual = 0, Final residual = 0, No Iterations 0
time step continuity errors : sum local = 1.85436155599522e-12, global = 5.708500148264061e-13, cumulative = 1.296684762844639e-12
DILUPBiCG:  Solving for p, Initial residual = 1.874369754755164e-06, Final residual = 1.1955645417453e-14, No Iterations 2
diagonal:  Solving for rho, Initial residual = 0, Final residual = 0, No Iterations 0
time step continuity errors : sum local = 1.910079795128934e-16, global = -1.70726711268473e-16, cumulative = 1.29651403613337e-12
DILUPBiCG:  Solving for k, Initial residual = 0.09963076914246351, Final residual = 1.097589506078475e-17, No Iterations 3
ExecutionTime = 305.91 s  ClockTime = 427 s

ORIG_COMP_STEP = 9.107960011999978
ORIG_IO_STEP = 1.781744155000013
Courant Number mean: 1.467431533224813e-08 max: 0.007008909706446848
deltaT = 4.101862702460016e-07
Time = 2.45512e-06

PIMPLE: iteration 1
diagonal:  Solving for rho, Initial residual = 0, Final residual = 0, No Iterations 0
DILUPBiCG:  Solving for Ux, Initial residual = 0.1588222512619504, Final residual = 9.608252255759925e-18, No Iterations 3
DILUPBiCG:  Solving for Uy, Initial residual = 0.1588222512615268, Final residual = 9.842755393871405e-18, No Iterations 3
DILUPBiCG:  Solving for Uz, Initial residual = 0.04574467797079486, Final residual = 4.563567290159109e-17, No Iterations 3
DILUPBiCG:  Solving for e, Initial residual = 0.04433586813205923, Final residual = 1.789433165754407e-17, No Iterations 3
DILUPBiCG:  Solving for p, Initial residual = 0.04556997537923984, Final residual = 2.574808710624646e-06, No Iterations 1
diagonal:  Solving for rho, Initial residual = 0, Final residual = 0, No Iterations 0
time step continuity errors : sum local = 3.224810459877262e-12, global = 1.02515245843469e-12, cumulative = 2.32166649456806e-12
DILUPBiCG:  Solving for p, Initial residual = 2.784001313487475e-06, Final residual = 3.968361794567243e-14, No Iterations 2
diagonal:  Solving for rho, Initial residual = 0, Final residual = 0, No Iterations 0
time step continuity errors : sum local = 1.872895578249673e-16, global = -1.676711962905179e-16, cumulative = 2.321498823371769e-12
DILUPBiCG:  Solving for k, Initial residual = 0.09933287191937895, Final residual = 4.142414256554247e-17, No Iterations 3
ExecutionTime = 319.8 s  ClockTime = 443 s

ORIG_COMP_STEP = 13.92301023599998
ORIG_IO_STEP = 9.955538666999985
Courant Number mean: 1.784032562557457e-08 max: 0.008420730813754933
deltaT = 4.922235242952019e-07
Time = 2.94734e-06

PIMPLE: iteration 1
diagonal:  Solving for rho, Initial residual = 0, Final residual = 0, No Iterations 0
DILUPBiCG:  Solving for Ux, Initial residual = 0.1580902163239777, Final residual = 3.404957005090837e-17, No Iterations 3
DILUPBiCG:  Solving for Uy, Initial residual = 0.1580902163235946, Final residual = 3.516520240360189e-17, No Iterations 3
DILUPBiCG:  Solving for Uz, Initial residual = 0.04539524119019151, Final residual = 1.76897643810009e-16, No Iterations 3
DILUPBiCG:  Solving for e, Initial residual = 0.04377011949075994, Final residual = 6.817205090753628e-17, No Iterations 3
DILUPBiCG:  Solving for p, Initial residual = 0.04523139425416524, Final residual = 3.762452349538277e-06, No Iterations 1
diagonal:  Solving for rho, Initial residual = 0, Final residual = 0, No Iterations 0
time step continuity errors : sum local = 5.611236817516194e-12, global = 1.845939781224799e-12, cumulative = 4.167438604596568e-12
DILUPBiCG:  Solving for p, Initial residual = 4.136855442763441e-06, Final residual = 1.336550332788464e-13, No Iterations 2
diagonal:  Solving for rho, Initial residual = 0, Final residual = 0, No Iterations 0
time step continuity errors : sum local = 1.305291501649771e-16, global = 1.776333152571769e-17, cumulative = 4.167456367928094e-12
DILUPBiCG:  Solving for k, Initial residual = 0.09905077032490177, Final residual = 1.542600642553448e-16, No Iterations 3
ExecutionTime = 327.27 s  ClockTime = 460 s

ORIG_COMP_STEP = 7.372791941000003
ORIG_IO_STEP = 4.756609065000021
Courant Number mean: 2.17862107561724e-08 max: 0.01013697504870312
deltaT = 5.906682291542422e-07
Time = 3.53801e-06

PIMPLE: iteration 1
diagonal:  Solving for rho, Initial residual = 0, Final residual = 0, No Iterations 0
DILUPBiCG:  Solving for Ux, Initial residual = 0.1572961564917735, Final residual = 1.232571977470898e-16, No Iterations 3
DILUPBiCG:  Solving for Uy, Initial residual = 0.1572961564914943, Final residual = 1.291504843360829e-16, No Iterations 3
DILUPBiCG:  Solving for Uz, Initial residual = 0.04501746295617175, Final residual = 6.980300873052635e-16, No Iterations 3
DILUPBiCG:  Solving for e, Initial residual = 0.04315749598488449, Final residual = 2.532552425342003e-16, No Iterations 3
DILUPBiCG:  Solving for p, Initial residual = 0.04488030596970524, Final residual = 5.505042938966612e-06, No Iterations 1
diagonal:  Solving for rho, Initial residual = 0, Final residual = 0, No Iterations 0
time step continuity errors : sum local = 9.76723820652542e-12, global = 3.327226377217429e-12, cumulative = 7.494682745145524e-12
DILUPBiCG:  Solving for p, Initial residual = 6.141123270750433e-06, Final residual = 4.572457731318033e-13, No Iterations 2
diagonal:  Solving for rho, Initial residual = 0, Final residual = 0, No Iterations 0
time step continuity errors : sum local = 2.759258291548444e-16, global = 2.646571075411917e-16, cumulative = 7.494947402253065e-12
DILUPBiCG:  Solving for k, Initial residual = 0.09878049581906366, Final residual = 5.670343483525371e-16, No Iterations 3
ExecutionTime = 337.9 s  ClockTime = 475 s

ORIG_COMP_STEP = 10.61685818300003
ORIG_IO_STEP = 1.404097007000018
Courant Number mean: 2.675996857883819e-08 max: 0.01223925488543469
deltaT = 7.088018749850907e-07
Time = 4.24681e-06

PIMPLE: iteration 1
diagonal:  Solving for rho, Initial residual = 0, Final residual = 0, No Iterations 0
DILUPBiCG:  Solving for Ux, Initial residual = 0.1564459276006795, Final residual = 4.694276406705773e-16, No Iterations 3
DILUPBiCG:  Solving for Uy, Initial residual = 0.1564459276004476, Final residual = 5.038178259080981e-16, No Iterations 3
DILUPBiCG:  Solving for Uz, Initial residual = 0.04461867171837912, Final residual = 2.781816998790971e-15, No Iterations 3
DILUPBiCG:  Solving for e, Initial residual = 0.04251059455774039, Final residual = 9.160614499415072e-16, No Iterations 3
DILUPBiCG:  Solving for p, Initial residual = 0.0445282026876822, Final residual = 8.060858937583213e-06, No Iterations 1
diagonal:  Solving for rho, Initial residual = 0, Final residual = 0, No Iterations 0
time step continuity errors : sum local = 1.699821910402217e-11, global = 5.989133673846604e-12, cumulative = 1.348408107609967e-11
DILUPBiCG:  Solving for p, Initial residual = 9.095289344931734e-06, Final residual = 1.455544865048344e-16, No Iterations 3
diagonal:  Solving for rho, Initial residual = 0, Final residual = 0, No Iterations 0
time step continuity errors : sum local = 2.114592490426994e-16, global = -1.942799294567089e-16, cumulative = 1.348388679617021e-11
DILUPBiCG:  Solving for k, Initial residual = 0.09851750423200444, Final residual = 2.058084729721751e-15, No Iterations 3
ExecutionTime = 359.19 s  ClockTime = 498 s

ORIG_COMP_STEP = 21.37545133600003
ORIG_IO_STEP = 4.935995909999974
Courant Number mean: 3.311482451021526e-08 max: 0.01484090815078859
deltaT = 8.505622499821088e-07
Time = 5.09737e-06

PIMPLE: iteration 1
diagonal:  Solving for rho, Initial residual = 0, Final residual = 0, No Iterations 0
DILUPBiCG:  Solving for Ux, Initial residual = 0.1555535925400741, Final residual = 1.968856249593054e-15, No Iterations 3
DILUPBiCG:  Solving for Uy, Initial residual = 0.1555535925400593, Final residual = 2.184089808514143e-15, No Iterations 3
DILUPBiCG:  Solving for Uz, Initial residual = 0.04421327122158202, Final residual = 1.113312461639743e-14, No Iterations 3
DILUPBiCG:  Solving for e, Initial residual = 0.04185223920711603, Final residual = 3.237549546574497e-15, No Iterations 3
DILUPBiCG:  Solving for p, Initial residual = 0.04418267830450262, Final residual = 1.180314168025099e-05, No Iterations 1
diagonal:  Solving for rho, Initial residual = 0, Final residual = 0, No Iterations 0
time step continuity errors : sum local = 2.955761786430849e-11, global = 1.074295545077622e-11, cumulative = 2.422684224694644e-11
DILUPBiCG:  Solving for p, Initial residual = 1.342838536951104e-05, Final residual = 6.759840481647546e-16, No Iterations 3
diagonal:  Solving for rho, Initial residual = 0, Final residual = 0, No Iterations 0
time step continuity errors : sum local = 2.932429793068399e-16, global = 2.275125679027932e-16, cumulative = 2.422706975951434e-11
DILUPBiCG:  Solving for k, Initial residual = 0.09825486085892697, Final residual = 7.379707238013703e-15, No Iterations 3
ExecutionTime = 367.89 s  ClockTime = 512 s

ORIG_COMP_STEP = 8.64698658399999
ORIG_IO_STEP = 1.65133264100001
Courant Number mean: 4.13619299150503e-08 max: 0.01810326026848214
deltaT = 1.02067469997853e-06
Time = 6.11805e-06

PIMPLE: iteration 1
diagonal:  Solving for rho, Initial residual = 0, Final residual = 0, No Iterations 0
DILUPBiCG:  Solving for Ux, Initial residual = 0.1546427283620921, Final residual = 1.149643642002424e-14, No Iterations 3
DILUPBiCG:  Solving for Uy, Initial residual = 0.1546427283624985, Final residual = 1.2908864151361e-14, No Iterations 3
DILUPBiCG:  Solving for Uz, Initial residual = 0.04382537655926064, Final residual = 4.459566278042508e-14, No Iterations 3
DILUPBiCG:  Solving for e, Initial residual = 0.0412161893280134, Final residual = 1.112968192686645e-14, No Iterations 3
DILUPBiCG:  Solving for p, Initial residual = 0.04386342401171289, Final residual = 1.725925047511216e-05, No Iterations 1
diagonal:  Solving for rho, Initial residual = 0, Final residual = 0, No Iterations 0
time step continuity errors : sum local = 5.128957786392666e-11, global = 1.909973767804381e-11, cumulative = 4.332680743755815e-11
DILUPBiCG:  Solving for p, Initial residual = 1.972149525533481e-05, Final residual = 3.132780592453867e-15, No Iterations 3
diagonal:  Solving for rho, Initial residual = 0, Final residual = 0, No Iterations 0
time step continuity errors : sum local = 1.840862634641715e-16, global = -3.846494637531691e-17, cumulative = 4.332676897261178e-11
DILUPBiCG:  Solving for k, Initial residual = 0.09798021289743, Final residual = 2.616951769517126e-14, No Iterations 3
ExecutionTime = 384.08 s  ClockTime = 530 s

ORIG_COMP_STEP = 16.25537712599998
ORIG_IO_STEP = 1.731070970999895
Courant Number mean: 5.224846536581829e-08 max: 0.02226018300929385
deltaT = 1.224809639974236e-06
Time = 7.34286e-06

PIMPLE: iteration 1
diagonal:  Solving for rho, Initial residual = 0, Final residual = 0, No Iterations 0
DILUPBiCG:  Solving for Ux, Initial residual = 0.1537465932688759, Final residual = 7.659286489814846e-14, No Iterations 3
DILUPBiCG:  Solving for Uy, Initial residual = 0.1537465932719178, Final residual = 8.603470135810842e-14, No Iterations 3
DILUPBiCG:  Solving for Uz, Initial residual = 0.04349142337434579, Final residual = 1.787210543387504e-13, No Iterations 3
DILUPBiCG:  Solving for e, Initial residual = 0.04065069596864978, Final residual = 3.70949289016356e-14, No Iterations 3
DILUPBiCG:  Solving for p, Initial residual = 0.04359231852991128, Final residual = 2.51528389545513e-05, No Iterations 1
diagonal:  Solving for rho, Initial residual = 0, Final residual = 0, No Iterations 0
time step continuity errors : sum local = 8.865329045681208e-11, global = 3.339655225816973e-11, cumulative = 7.672332123078152e-11
DILUPBiCG:  Solving for p, Initial residual = 2.869143315708676e-05, Final residual = 1.467141458249012e-14, No Iterations 3
diagonal:  Solving for rho, Initial residual = 0, Final residual = 0, No Iterations 0
time step continuity errors : sum local = 1.699154331914688e-16, global = -8.47873986900434e-17, cumulative = 7.672323644338283e-11
DILUPBiCG:  Solving for k, Initial residual = 0.09767113725006227, Final residual = 9.199976147258125e-14, No Iterations 3
ExecutionTime = 397.6 s  ClockTime = 545 s

ORIG_COMP_STEP = 13.56797418299993
ORIG_IO_STEP = 2.676139068999987
Courant Number mean: 6.686957923143241e-08 max: 0.02765365382495276
deltaT = 1.469771567969084e-06
Time = 8.81263e-06

PIMPLE: iteration 1
diagonal:  Solving for rho, Initial residual = 0, Final residual = 0, No Iterations 0
DILUPBiCG:  Solving for Ux, Initial residual = 0.152905110375968, Final residual = 5.693698087816409e-13, No Iterations 3
DILUPBiCG:  Solving for Uy, Initial residual = 0.1529051103881286, Final residual = 6.325804939542971e-13, No Iterations 3
DILUPBiCG:  Solving for Uz, Initial residual = 0.04326190054965733, Final residual = 7.188607730211243e-13, No Iterations 3
DILUPBiCG:  Solving for e, Initial residual = 0.04021674292693644, Final residual = 1.189125383223207e-13, No Iterations 3
DILUPBiCG:  Solving for p, Initial residual = 0.0433897000982439, Final residual = 3.643191881706425e-05, No Iterations 1
diagonal:  Solving for rho, Initial residual = 0, Final residual = 0, No Iterations 0
time step continuity errors : sum local = 1.52244323119063e-10, global = 5.672996421201266e-11, cumulative = 1.334532006553955e-10
DILUPBiCG:  Solving for p, Initial residual = 4.103917791471471e-05, Final residual = 7.661339416123006e-14, No Iterations 3
diagonal:  Solving for rho, Initial residual = 0, Final residual = 0, No Iterations 0
time step continuity errors : sum local = 1.999619117752746e-16, global = -1.011873129560181e-16, cumulative = 1.334530994680825e-10
DILUPBiCG:  Solving for k, Initial residual = 0.09728905587521888, Final residual = 3.223237235654277e-13, No Iterations 3
ExecutionTime = 409.02 s  ClockTime = 559 s

ORIG_COMP_STEP = 11.421009024
ORIG_IO_STEP = 8.991168608000066
Courant Number mean: 8.68214403036339e-08 max: 0.03478177480746846
deltaT = 1.7637258815629e-06
Time = 1.05764e-05

PIMPLE: iteration 1
diagonal:  Solving for rho, Initial residual = 0, Final residual = 0, No Iterations 0
DILUPBiCG:  Solving for Ux, Initial residual = 0.1521560805788154, Final residual = 2.290104069926806e-15, No Iterations 4
DILUPBiCG:  Solving for Uy, Initial residual = 0.1521560806162489, Final residual = 2.293091790641234e-15, No Iterations 4
DILUPBiCG:  Solving for Uz, Initial residual = 0.04320004474060265, Final residual = 4.723054328201904e-16, No Iterations 4
DILUPBiCG:  Solving for e, Initial residual = 0.03997958981662894, Final residual = 3.559708190815194e-13, No Iterations 3
DILUPBiCG:  Solving for p, Initial residual = 0.04326645761339291, Final residual = 5.225031669545583e-05, No Iterations 1
diagonal:  Solving for rho, Initial residual = 0, Final residual = 0, No Iterations 0
time step continuity errors : sum local = 2.588389360759537e-10, global = 9.185062725884317e-11, cumulative = 2.253037267269257e-10
DILUPBiCG:  Solving for p, Initial residual = 5.684967429786687e-05, Final residual = 5.210172755300012e-13, No Iterations 3
diagonal:  Solving for rho, Initial residual = 0, Final residual = 0, No Iterations 0
time step continuity errors : sum local = 1.994790500159326e-16, global = -4.314759396422607e-17, cumulative = 2.253036835793317e-10
DILUPBiCG:  Solving for k, Initial residual = 0.09677296418073428, Final residual = 4.606793754580487e-17, No Iterations 4
ExecutionTime = 419.19 s  ClockTime = 578 s

ORIG_COMP_STEP = 10.09981431599999
ORIG_IO_STEP = 8.218294655000022
Courant Number mean: 1.143995324213153e-07 max: 0.04435551329416965
deltaT = 2.11647105787548e-06
Time = 1.26928e-05

PIMPLE: iteration 1
diagonal:  Solving for rho, Initial residual = 0, Final residual = 0, No Iterations 0
DILUPBiCG:  Solving for Ux, Initial residual = 0.1515186745934117, Final residual = 2.652495796352567e-14, No Iterations 4
DILUPBiCG:  Solving for Uy, Initial residual = 0.1515186745802609, Final residual = 2.654034840632794e-14, No Iterations 4
DILUPBiCG:  Solving for Uz, Initial residual = 0.04337477672722275, Final residual = 5.279974560762845e-14, No Iterations 4
DILUPBiCG:  Solving for e, Initial residual = 0.03998895676141168, Final residual = 8.762433396883417e-13, No Iterations 3
DILUPBiCG:  Solving for p, Initial residual = 0.04321223298704524, Final residual = 7.383358383384447e-05, No Iterations 1
diagonal:  Solving for rho, Initial residual = 0, Final residual = 0, No Iterations 0
time step continuity errors : sum local = 4.335630786583954e-10, global = 1.378194761985893e-10, cumulative = 3.63123159777921e-10
DILUPBiCG:  Solving for p, Initial residual = 7.650022625195016e-05, Final residual = 4.710408531216926e-15, No Iterations 4
diagonal:  Solving for rho, Initial residual = 0, Final residual = 0, No Iterations 0
time step continuity errors : sum local = 1.633278484715079e-16, global = 2.186059724360629e-17, cumulative = 3.631231816385183e-10
DILUPBiCG:  Solving for k, Initial residual = 0.09603629529184569, Final residual = 3.095044275416568e-16, No Iterations 4
ExecutionTime = 427.58 s  ClockTime = 595 s

ORIG_COMP_STEP = 8.299158619999957
ORIG_IO_STEP = 5.405309407000004
Courant Number mean: 1.528474307157051e-07 max: 0.05734724193901759
deltaT = 2.539765269450577e-06
Time = 1.52326e-05

PIMPLE: iteration 1
diagonal:  Solving for rho, Initial residual = 0, Final residual = 0, No Iterations 0
DILUPBiCG:  Solving for Ux, Initial residual = 0.1509719689912419, Final residual = 2.828045188234365e-13, No Iterations 4
DILUPBiCG:  Solving for Uy, Initial residual = 0.1509719690783452, Final residual = 2.830601102674332e-13, No Iterations 4
DILUPBiCG:  Solving for Uz, Initial residual = 0.04384555077967658, Final residual = 4.327373202385296e-14, No Iterations 4
DILUPBiCG:  Solving for e, Initial residual = 0.0402455961015946, Final residual = 1.986050084977854e-16, No Iterations 4
DILUPBiCG:  Solving for p, Initial residual = 0.04318392235875107, Final residual = 0.000102410138385088, No Iterations 1
diagonal:  Solving for rho, Initial residual = 0, Final residual = 0, No Iterations 0
time step continuity errors : sum local = 7.127817115608714e-10, global = 1.853955910139521e-10, cumulative = 5.485187726524704e-10
DILUPBiCG:  Solving for p, Initial residual = 0.0001034926867667235, Final residual = 2.784301011558447e-14, No Iterations 4
diagonal:  Solving for rho, Initial residual = 0, Final residual = 0, No Iterations 0
time step continuity errors : sum local = 1.669976930688079e-16, global = 8.720839731506475e-17, cumulative = 5.485188598608678e-10
DILUPBiCG:  Solving for k, Initial residual = 0.09497370507347609, Final residual = 2.220315891159602e-15, No Iterations 4
ExecutionTime = 440.7 s  ClockTime = 613 s

ORIG_COMP_STEP = 13.13388275
ORIG_IO_STEP = 3.540419066000027
Courant Number mean: 2.066968854394636e-07 max: 0.07498895197267677
deltaT = 3.047718323340692e-06
Time = 1.82803e-05

PIMPLE: iteration 1
diagonal:  Solving for rho, Initial residual = 0, Final residual = 0, No Iterations 0
DILUPBiCG:  Solving for Ux, Initial residual = 0.1504436489630711, Final residual = 1.636538759359657e-14, No Iterations 5
DILUPBiCG:  Solving for Uy, Initial residual = 0.1504436496431233, Final residual = 1.710377846160672e-14, No Iterations 5
DILUPBiCG:  Solving for Uz, Initial residual = 0.04463950502982973, Final residual = 4.704305923451614e-13, No Iterations 4
DILUPBiCG:  Solving for e, Initial residual = 0.0406626970826563, Final residual = 8.144405285104755e-15, No Iterations 4
DILUPBiCG:  Solving for p, Initial residual = 0.04310599024663065, Final residual = 0.0001410905594436772, No Iterations 1
diagonal:  Solving for rho, Initial residual = 0, Final residual = 0, No Iterations 0
time step continuity errors : sum local = 1.163553175514015e-09, global = 2.213418075921567e-10, cumulative = 7.698606674530245e-10
DILUPBiCG:  Solving for p, Initial residual = 0.0001546323946626088, Final residual = 2.121354944806844e-13, No Iterations 4
diagonal:  Solving for rho, Initial residual = 0, Final residual = 0, No Iterations 0
time step continuity errors : sum local = 1.846782056230788e-16, global = 1.01714514224679e-17, cumulative = 7.698606776244759e-10
DILUPBiCG:  Solving for k, Initial residual = 0.0934865809101172, Final residual = 1.611944984796299e-14, No Iterations 4
ExecutionTime = 454.05 s  ClockTime = 630 s

ORIG_COMP_STEP = 13.37581003000003
ORIG_IO_STEP = 2.942815147000033
Courant Number mean: 2.823727969634704e-07 max: 0.09864670456731901
deltaT = 3.65726198800883e-06
Time = 2.19376e-05

PIMPLE: iteration 1
diagonal:  Solving for rho, Initial residual = 0, Final residual = 0, No Iterations 0
DILUPBiCG:  Solving for Ux, Initial residual = 0.1498405371126957, Final residual = 1.492026881992117e-13, No Iterations 5
DILUPBiCG:  Solving for Uy, Initial residual = 0.1498405378403868, Final residual = 1.551089765765589e-13, No Iterations 5
DILUPBiCG:  Solving for Uz, Initial residual = 0.04573061194189128, Final residual = 1.799705172149968e-14, No Iterations 5
DILUPBiCG:  Solving for e, Initial residual = 0.04105396035551497, Final residual = 3.555029754981834e-13, No Iterations 4
DILUPBiCG:  Solving for p, Initial residual = 0.043440555217444, Final residual = 0.000197161453869619, No Iterations 1
diagonal:  Solving for rho, Initial residual = 0, Final residual = 0, No Iterations 0
time step continuity errors : sum local = 1.925263983778979e-09, global = 2.461174968423199e-10, cumulative = 1.015978174466796e-09
DILUPBiCG:  Solving for p, Initial residual = 0.0002893897851092961, Final residual = 4.881778256031012e-15, No Iterations 5
diagonal:  Solving for rho, Initial residual = 0, Final residual = 0, No Iterations 0
time step continuity errors : sum local = 1.795971969404738e-16, global = -6.624133287510246e-17, cumulative = 1.015978108225463e-09
DILUPBiCG:  Solving for k, Initial residual = 0.09153462971653058, Final residual = 1.102210416180082e-13, No Iterations 4
ExecutionTime = 469.54 s  ClockTime = 649 s

ORIG_COMP_STEP = 15.53689438200001
ORIG_IO_STEP = 1.782999554000071
Courant Number mean: 3.895179960506823e-07 max: 0.129501320118186
deltaT = 4.222084336486992e-06
Time = 2.61597e-05

PIMPLE: iteration 1
diagonal:  Solving for rho, Initial residual = 0, Final residual = 0, No Iterations 0
DILUPBiCG:  Solving for Ux, Initial residual = 0.1444516782464136, Final residual = 8.039014942132269e-13, No Iterations 5
DILUPBiCG:  Solving for Uy, Initial residual = 0.1444516767569247, Final residual = 8.380526568317125e-13, No Iterations 5
DILUPBiCG:  Solving for Uz, Initial residual = 0.04537071543447412, Final residual = 1.297197052793494e-13, No Iterations 5
[...]

ORIG_COMP_STEP = 7.584983347999923
ORIG_IO_STEP = 16.69561537499999
Courant Number mean: 1.143995324213153e-07 max: 0.04435551329416965
deltaT = 2.11647105787548e-06
Time = 1.26928e-05

PIMPLE: iteration 1
diagonal:  Solving for rho, Initial residual = 0, Final residual = 0, No Iterations 0
DILUPBiCG:  Solving for Ux, Initial residual = 0.1515186745934117, Final residual = 2.652495796352567e-14, No Iterations 4
DILUPBiCG:  Solving for Uy, Initial residual = 0.1515186745802609, Final residual = 2.654034840632794e-14, No Iterations 4
DILUPBiCG:  Solving for Uz, Initial residual = 0.04337477672722275, Final residual = 5.279974560762845e-14, No Iterations 4
DILUPBiCG:  Solving for e, Initial residual = 0.03998895676141168, Final residual = 8.762433396883417e-13, No Iterations 3
DILUPBiCG:  Solving for p, Initial residual = 0.04321223298704524, Final residual = 7.383358383384447e-05, No Iterations 1
diagonal:  Solving for rho, Initial residual = 0, Final residual = 0, No Iterations 0
time step continuity errors : sum local = 4.335630786583954e-10, global = 1.378194761985893e-10, cumulative = 3.63123159777921e-10
DILUPBiCG:  Solving for p, Initial residual = 7.650022625195016e-05, Final residual = 4.710408531216926e-15, No Iterations 4
diagonal:  Solving for rho, Initial residual = 0, Final residual = 0, No Iterations 0
time step continuity errors : sum local = 1.633278484715079e-16, global = 2.186059724360629e-17, cumulative = 3.631231816385183e-10
DILUPBiCG:  Solving for k, Initial residual = 0.09603629529184569, Final residual = 3.095044275416568e-16, No Iterations 4
ExecutionTime = 525.74 s  ClockTime = 1415 s

ORIG_COMP_STEP = 8.553844531999857
ORIG_IO_STEP = 16.53801403400007
Courant Number mean: 1.528474307157051e-07 max: 0.05734724193901759
deltaT = 2.539765269450577e-06
Time = 1.52326e-05

PIMPLE: iteration 1
diagonal:  Solving for rho, Initial residual = 0, Final residual = 0, No Iterations 0
DILUPBiCG:  Solving for Ux, Initial residual = 0.1509719689912419, Final residual = 2.828045188234365e-13, No Iterations 4
DILUPBiCG:  Solving for Uy, Initial residual = 0.1509719690783452, Final residual = 2.830601102674332e-13, No Iterations 4
DILUPBiCG:  Solving for Uz, Initial residual = 0.04384555077967658, Final residual = 4.327373202385296e-14, No Iterations 4
DILUPBiCG:  Solving for e, Initial residual = 0.0402455961015946, Final residual = 1.986050084977854e-16, No Iterations 4
DILUPBiCG:  Solving for p, Initial residual = 0.04318392235875107, Final residual = 0.000102410138385088, No Iterations 1
diagonal:  Solving for rho, Initial residual = 0, Final residual = 0, No Iterations 0
time step continuity errors : sum local = 7.127817115608714e-10, global = 1.853955910139521e-10, cumulative = 5.485187726524704e-10
DILUPBiCG:  Solving for p, Initial residual = 0.0001034926867667235, Final residual = 2.784301011558447e-14, No Iterations 4
diagonal:  Solving for rho, Initial residual = 0, Final residual = 0, No Iterations 0
time step continuity errors : sum local = 1.669976930688079e-16, global = 8.720839731506475e-17, cumulative = 5.485188598608678e-10
DILUPBiCG:  Solving for k, Initial residual = 0.09497370507347609, Final residual = 2.220315891159602e-15, No Iterations 4
ExecutionTime = 534.92 s  ClockTime = 1442 s

ORIG_COMP_STEP = 9.178411153999832
ORIG_IO_STEP = 18.76530395700001
Courant Number mean: 2.066968854394636e-07 max: 0.07498895197267677
deltaT = 3.047718323340692e-06
Time = 1.82803e-05

PIMPLE: iteration 1
diagonal:  Solving for rho, Initial residual = 0, Final residual = 0, No Iterations 0
DILUPBiCG:  Solving for Ux, Initial residual = 0.1504436489630711, Final residual = 1.636538759359657e-14, No Iterations 5
DILUPBiCG:  Solving for Uy, Initial residual = 0.1504436496431233, Final residual = 1.710377846160672e-14, No Iterations 5
DILUPBiCG:  Solving for Uz, Initial residual = 0.04463950502982973, Final residual = 4.704305923451614e-13, No Iterations 4
DILUPBiCG:  Solving for e, Initial residual = 0.0406626970826563, Final residual = 8.144405285104755e-15, No Iterations 4
DILUPBiCG:  Solving for p, Initial residual = 0.04310599024663065, Final residual = 0.0001410905594436772, No Iterations 1
diagonal:  Solving for rho, Initial residual = 0, Final residual = 0, No Iterations 0
time step continuity errors : sum local = 1.163553175514015e-09, global = 2.213418075921567e-10, cumulative = 7.698606674530245e-10
DILUPBiCG:  Solving for p, Initial residual = 0.0001546323946626088, Final residual = 2.121354944806844e-13, No Iterations 4
diagonal:  Solving for rho, Initial residual = 0, Final residual = 0, No Iterations 0
time step continuity errors : sum local = 1.846782056230788e-16, global = 1.01714514224679e-17, cumulative = 7.698606776244759e-10
DILUPBiCG:  Solving for k, Initial residual = 0.0934865809101172, Final residual = 1.611944984796299e-14, No Iterations 4
ExecutionTime = 544.6900000000001 s  ClockTime = 1471 s

ORIG_COMP_STEP = 9.754053455999838
ORIG_IO_STEP = 16.01390256800005
Courant Number mean: 2.823727969634704e-07 max: 0.09864670456731901
deltaT = 3.65726198800883e-06
Time = 2.19376e-05

PIMPLE: iteration 1
diagonal:  Solving for rho, Initial residual = 0, Final residual = 0, No Iterations 0
DILUPBiCG:  Solving for Ux, Initial residual = 0.1498405371126957, Final residual = 1.492026881992117e-13, No Iterations 5
DILUPBiCG:  Solving for Uy, Initial residual = 0.1498405378403868, Final residual = 1.551089765765589e-13, No Iterations 5
DILUPBiCG:  Solving for Uz, Initial residual = 0.04573061194189128, Final residual = 1.799705172149968e-14, No Iterations 5
DILUPBiCG:  Solving for e, Initial residual = 0.04105396035551497, Final residual = 3.555029754981834e-13, No Iterations 4
DILUPBiCG:  Solving for p, Initial residual = 0.043440555217444, Final residual = 0.000197161453869619, No Iterations 1
diagonal:  Solving for rho, Initial residual = 0, Final residual = 0, No Iterations 0
time step continuity errors : sum local = 1.925263983778979e-09, global = 2.461174968423199e-10, cumulative = 1.015978174466796e-09
DILUPBiCG:  Solving for p, Initial residual = 0.0002893897851092961, Final residual = 4.881778256031012e-15, No Iterations 5
diagonal:  Solving for rho, Initial residual = 0, Final residual = 0, No Iterations 0
time step continuity errors : sum local = 1.795971969404738e-16, global = -6.624133287510246e-17, cumulative = 1.015978108225463e-09
DILUPBiCG:  Solving for k, Initial residual = 0.09153462971653058, Final residual = 1.102210416180082e-13, No Iterations 4
ExecutionTime = 553.91 s  ClockTime = 1497 s

ORIG_COMP_STEP = 9.188143113000024
ORIG_IO_STEP = 13.97024466000016
Courant Number mean: 3.895179960506823e-07 max: 0.129501320118186
deltaT = 4.222084336486992e-06
Time = 2.61597e-05

PIMPLE: iteration 1
diagonal:  Solving for rho, Initial residual = 0, Final residual = 0, No Iterations 0
DILUPBiCG:  Solving for Ux, Initial residual = 0.1444516782464136, Final residual = 8.039014942132269e-13, No Iterations 5
DILUPBiCG:  Solving for Uy, Initial residual = 0.1444516767569247, Final residual = 8.380526568317125e-13, No Iterations 5
DILUPBiCG:  Solving for Uz, Initial residual = 0.04537071543447412, Final residual = 1.297197052793494e-13, No Iterations 5
DILUPBiCG:  Solving for e, Initial residual = 0.04040046907221582, Final residual = 6.885863418904251e-15, No Iterations 5
DILUPBiCG:  Solving for p, Initial residual = 0.0445899249146671, Final residual = 0.0002856842084345544, No Iterations 1
diagonal:  Solving for rho, Initial residual = 0, Final residual = 0, No Iterations 0
time step continuity errors : sum local = 3.294797859153905e-09, global = 1.957031385543113e-10, cumulative = 1.211681246779774e-09
DILUPBiCG:  Solving for p, Initial residual = 0.0005185072924364526, Final residual = 2.723775684331724e-14, No Iterations 5
diagonal:  Solving for rho, Initial residual = 0, Final residual = 0, No Iterations 0
time step continuity errors : sum local = 1.713036102177768e-16, global = 1.420158648761349e-19, cumulative = 1.21168124692179e-09
DILUPBiCG:  Solving for k, Initial residual = 0.08628889450453973, Final residual = 6.036445041433853e-13, No Iterations 4
ExecutionTime = 562.16 s  ClockTime = 1521 s

ORIG_COMP_STEP = 8.243222356999922
ORIG_IO_STEP = 17.763885136
Courant Number mean: 5.208061214920152e-07 max: 0.1613927112048135
deltaT = 4.745290657883871e-06
Time = 3.09049e-05

PIMPLE: iteration 1
diagonal:  Solving for rho, Initial residual = 0, Final residual = 0, No Iterations 0
DILUPBiCG:  Solving for Ux, Initial residual = 0.137070213546971, Final residual = 3.647073207525587e-14, No Iterations 6
DILUPBiCG:  Solving for Uy, Initial residual = 0.1370701888464986, Final residual = 3.690064523211423e-14, No Iterations 6
DILUPBiCG:  Solving for Uz, Initial residual = 0.04424209400918783, Final residual = 6.062281645873768e-13, No Iterations 5
DILUPBiCG:  Solving for e, Initial residual = 0.04037357437845297, Final residual = 6.151704730386018e-14, No Iterations 5
DILUPBiCG:  Solving for p, Initial residual = 0.04470529016884647, Final residual = 0.0003723909077736875, No Iterations 1
diagonal:  Solving for rho, Initial residual = 0, Final residual = 0, No Iterations 0
time step continuity errors : sum local = 5.034438230688917e-09, global = -1.50790125404019e-10, cumulative = 1.060891121517771e-09
DILUPBiCG:  Solving for p, Initial residual = 0.001543505690717497, Final residual = 2.367251840092069e-13, No Iterations 5
diagonal:  Solving for rho, Initial residual = 0, Final residual = 0, No Iterations 0
time step continuity errors : sum local = 1.784196004780141e-16, global = 8.629921441973323e-17, cumulative = 1.060891207816985e-09
DILUPBiCG:  Solving for k, Initial residual = 0.07990858217568295, Final residual = 2.066219316497035e-14, No Iterations 5
ExecutionTime = 570.65 s  ClockTime = 1549 s

ORIG_COMP_STEP = 8.475522091999892
ORIG_IO_STEP = 15.09676016600019
Courant Number mean: 6.912114398718323e-07 max: 0.1919827005756735
deltaT = 4.943456513169948e-06
Time = 3.58484e-05

PIMPLE: iteration 1
diagonal:  Solving for rho, Initial residual = 0, Final residual = 0, No Iterations 0
DILUPBiCG:  Solving for Ux, Initial residual = 0.1235697991664873, Final residual = 6.401060692136727e-14, No Iterations 6
DILUPBiCG:  Solving for Uy, Initial residual = 0.1235697298744752, Final residual = 5.479013268623122e-14, No Iterations 6
DILUPBiCG:  Solving for Uz, Initial residual = 0.04325592012872848, Final residual = 1.387610820318953e-14, No Iterations 6
DILUPBiCG:  Solving for e, Initial residual = 0.03717515499375791, Final residual = 2.819870470764844e-13, No Iterations 5
DILUPBiCG:  Solving for p, Initial residual = 0.04094402366112436, Final residual = 0.0003632436756488909, No Iterations 1
diagonal:  Solving for rho, Initial residual = 0, Final residual = 0, No Iterations 0
time step continuity errors : sum local = 5.691564651570929e-09, global = -6.03435356137199e-10, cumulative = 4.574558516797864e-10
DILUPBiCG:  Solving for p, Initial residual = 0.001252254842084022, Final residual = 4.89337281824678e-14, No Iterations 6
diagonal:  Solving for rho, Initial residual = 0, Final residual = 0, No Iterations 0
time step continuity errors : sum local = 1.790681115787559e-16, global = 8.991911986336124e-17, cumulative = 4.574559415989063e-10
DILUPBiCG:  Solving for k, Initial residual = 0.07015175481309739, Final residual = 6.362437209008175e-14, No Iterations 5
ExecutionTime = 579.58 s  ClockTime = 1575 s

ORIG_COMP_STEP = 8.927316961000088
ORIG_IO_STEP = 17.56626818500013
Courant Number mean: 8.601498257271312e-07 max: 0.2109504445858393
deltaT = 4.68684152135868e-06
Time = 4.05352e-05

PIMPLE: iteration 1
diagonal:  Solving for rho, Initial residual = 0, Final residual = 0, No Iterations 0
DILUPBiCG:  Solving for Ux, Initial residual = 0.1049149243200932, Final residual = 2.549949503308227e-14, No Iterations 6
DILUPBiCG:  Solving for Uy, Initial residual = 0.1049148562591285, Final residual = 2.870346436670752e-14, No Iterations 6
DILUPBiCG:  Solving for Uz, Initial residual = 0.03983201533842069, Final residual = 9.03928341554224e-15, No Iterations 6
DILUPBiCG:  Solving for e, Initial residual = 0.03205424829627224, Final residual = 7.097161851133405e-13, No Iterations 5
DILUPBiCG:  Solving for p, Initial residual = 0.03535052396342951, Final residual = 0.0002488087284430055, No Iterations 1
diagonal:  Solving for rho, Initial residual = 0, Final residual = 0, No Iterations 0
time step continuity errors : sum local = 4.436491726322855e-09, global = 2.442078321095644e-10, cumulative = 7.016637737084706e-10
DILUPBiCG:  Solving for p, Initial residual = 0.0006699881950836297, Final residual = 1.650201328291591e-13, No Iterations 5
diagonal:  Solving for rho, Initial residual = 0, Final residual = 0, No Iterations 0
time step continuity errors : sum local = 1.662402753922552e-16, global = -5.786285337356573e-17, cumulative = 7.016637158456172e-10
DILUPBiCG:  Solving for k, Initial residual = 0.05800532445991091, Final residual = 1.043969925966041e-13, No Iterations 5
ExecutionTime = 589.14 s  ClockTime = 1603 s

ORIG_COMP_STEP = 9.574725960000023
ORIG_IO_STEP = 13.83121847300004
Courant Number mean: 9.534555894368749e-07 max: 0.2103057830924024
deltaT = 4.457168464358769e-06
Time = 4.49924e-05

PIMPLE: iteration 1
diagonal:  Solving for rho, Initial residual = 0, Final residual = 0, No Iterations 0
DILUPBiCG:  Solving for Ux, Initial residual = 0.09163232987962687, Final residual = 3.105073471433737e-14, No Iterations 6
DILUPBiCG:  Solving for Uy, Initial residual = 0.09163232373903164, Final residual = 3.326448319515025e-14, No Iterations 6
DILUPBiCG:  Solving for Uz, Initial residual = 0.03573908318285531, Final residual = 1.184148527800415e-14, No Iterations 6
DILUPBiCG:  Solving for e, Initial residual = 0.02885732960931553, Final residual = 7.424251412735795e-15, No Iterations 6
DILUPBiCG:  Solving for p, Initial residual = 0.03424662877529179, Final residual = 0.0002178765936755342, No Iterations 1
diagonal:  Solving for rho, Initial residual = 0, Final residual = 0, No Iterations 0
time step continuity errors : sum local = 4.331946059036366e-09, global = 5.433705252895426e-11, cumulative = 7.560007683745715e-10
DILUPBiCG:  Solving for p, Initial residual = 0.0003682260613215144, Final residual = 6.661097596274392e-14, No Iterations 5
diagonal:  Solving for rho, Initial residual = 0, Final residual = 0, No Iterations 0
time step continuity errors : sum local = 1.80495554162429e-16, global = -1.701610106851515e-17, cumulative = 7.560007513584705e-10
DILUPBiCG:  Solving for k, Initial residual = 0.04950009943602125, Final residual = 3.744512121116135e-13, No Iterations 5
ExecutionTime = 598.9299999999999 s  ClockTime = 1627 s

ORIG_COMP_STEP = 9.80380728199998
ORIG_IO_STEP = 13.87154331600004
Courant Number mean: 1.028733292719299e-06 max: 0.2090869679160185
deltaT = 4.263458893477289e-06
Time = 4.92559e-05

PIMPLE: iteration 1
diagonal:  Solving for rho, Initial residual = 0, Final residual = 0, No Iterations 0
DILUPBiCG:  Solving for Ux, Initial residual = 0.08204442600218899, Final residual = 3.465022706104473e-14, No Iterations 6
DILUPBiCG:  Solving for Uy, Initial residual = 0.08204444953695905, Final residual = 3.573792714045639e-14, No Iterations 6
DILUPBiCG:  Solving for Uz, Initial residual = 0.03153664561153847, Final residual = 6.098548004496144e-13, No Iterations 5
DILUPBiCG:  Solving for e, Initial residual = 0.02736124748835488, Final residual = 8.464298510422432e-13, No Iterations 5
DILUPBiCG:  Solving for p, Initial residual = 0.03303884511823892, Final residual = 0.0002008813149754565, No Iterations 1
diagonal:  Solving for rho, Initial residual = 0, Final residual = 0, No Iterations 0
time step continuity errors : sum local = 4.388824812260916e-09, global = -3.405293433868727e-10, cumulative = 4.154714079715978e-10
DILUPBiCG:  Solving for p, Initial residual = 0.0006793948416771705, Final residual = 2.388055449308422e-15, No Iterations 6
diagonal:  Solving for rho, Initial residual = 0, Final residual = 0, No Iterations 0
time step continuity errors : sum local = 1.838036155232976e-16, global = -6.838525675995214e-17, cumulative = 4.15471339586341e-10
DILUPBiCG:  Solving for k, Initial residual = 0.04324907438945486, Final residual = 1.183870876053939e-13, No Iterations 5
ExecutionTime = 607.8200000000001 s  ClockTime = 1652 s

ORIG_COMP_STEP = 8.898154190000014
ORIG_IO_STEP = 12.35741740100002
Courant Number mean: 1.095647244525591e-06 max: 0.2076782428302129
deltaT = 4.105831054207113e-06
Time = 5.33617e-05

PIMPLE: iteration 1
diagonal:  Solving for rho, Initial residual = 0, Final residual = 0, No Iterations 0
DILUPBiCG:  Solving for Ux, Initial residual = 0.07449966478077603, Final residual = 4.443786773128685e-14, No Iterations 6
DILUPBiCG:  Solving for Uy, Initial residual = 0.07449968820986021, Final residual = 4.358865303856158e-14, No Iterations 6
DILUPBiCG:  Solving for Uz, Initial residual = 0.02782685398678671, Final residual = 5.509537805438627e-13, No Iterations 5
DILUPBiCG:  Solving for e, Initial residual = 0.02504966415378796, Final residual = 4.947848418391367e-13, No Iterations 5
DILUPBiCG:  Solving for p, Initial residual = 0.02947140412436885, Final residual = 0.0001736432978722448, No Iterations 1
diagonal:  Solving for rho, Initial residual = 0, Final residual = 0, No Iterations 0
time step continuity errors : sum local = 4.122647631000623e-09, global = -7.685785579543107e-10, cumulative = -3.531072183679697e-10
DILUPBiCG:  Solving for p, Initial residual = 0.0008251557713474306, Final residual = 2.801346210204256e-13, No Iterations 5
diagonal:  Solving for rho, Initial residual = 0, Final residual = 0, No Iterations 0
time step continuity errors : sum local = 1.878332346098403e-16, global = 6.743825999952509e-17, cumulative = -3.531071509297097e-10
DILUPBiCG:  Solving for k, Initial residual = 0.03849507468630291, Final residual = 1.428040294015017e-13, No Iterations 5
ExecutionTime = 617.76 s  ClockTime = 1675 s

ORIG_COMP_STEP = 9.972928067000112
ORIG_IO_STEP = 13.95965635399989
Courant Number mean: 1.173180820704784e-06 max: 0.2063894946522436
deltaT = 3.978720972329741e-06
Time = 5.73404e-05

PIMPLE: iteration 1
diagonal:  Solving for rho, Initial residual = 0, Final residual = 0, No Iterations 0
DILUPBiCG:  Solving for Ux, Initial residual = 0.06797258172510919, Final residual = 6.164780545906539e-14, No Iterations 6
DILUPBiCG:  Solving for Uy, Initial residual = 0.06797259565014452, Final residual = 5.175141789908734e-14, No Iterations 6
DILUPBiCG:  Solving for Uz, Initial residual = 0.0249134842890906, Final residual = 5.359314646177643e-13, No Iterations 5
DILUPBiCG:  Solving for e, Initial residual = 0.02231184075397401, Final residual = 4.136389979412425e-13, No Iterations 5
DILUPBiCG:  Solving for p, Initial residual = 0.02599725489895462, Final residual = 0.0001378235856113395, No Iterations 1
diagonal:  Solving for rho, Initial residual = 0, Final residual = 0, No Iterations 0
time step continuity errors : sum local = 3.525387746700204e-09, global = -7.841279248683249e-10, cumulative = -1.137235075798035e-09
DILUPBiCG:  Solving for p, Initial residual = 0.0004635785292172849, Final residual = 1.228785844734553e-15, No Iterations 6
diagonal:  Solving for rho, Initial residual = 0, Final residual = 0, No Iterations 0
time step continuity errors : sum local = 1.709347827313196e-16, global = -4.315800181475061e-17, cumulative = -1.137235118956037e-09
DILUPBiCG:  Solving for k, Initial residual = 0.0347913276297112, Final residual = 2.530991805241358e-13, No Iterations 5
ExecutionTime = 626.73 s  ClockTime = 1699 s

ORIG_COMP_STEP = 8.983663032999857
ORIG_IO_STEP = 17.08803689899992
Courant Number mean: 1.262769526360367e-06 max: 0.2053656641092827
deltaT = 3.874767468638279e-06
Time = 6.12152e-05

PIMPLE: iteration 1
diagonal:  Solving for rho, Initial residual = 0, Final residual = 0, No Iterations 0
