/*---------------------------------------------------------------------------*\
| =========                 |                                                 |
| \\      /  F ield         | OpenFOAM: The Open Source CFD Toolbox           |
|  \\    /   O peration     | Version:  v1912                                 |
|   \\  /    A nd           | Website:  www.openfoam.com                      |
|    \\/     M anipulation  |                                                 |
\*---------------------------------------------------------------------------*/
Build  : _f3950763fe-20191219 OPENFOAM=1912
Arch   : "LSB;label=32;scalar=64"
Exec   : rhoPimpleAPIO_METRICS -parallel
Date   : Nov 19 2020
Time   : 11:21:32
Host   : s24r2b69
PID    : 369103
I/O    : uncollated
Case   : /gpfs/scratch/pr1ejg00/pr1ejg20/openfoam/apio_64M/144
nProcs : 144
Hosts  :
(
    (s24r2b69 48)
    (s24r2b70 48)
    (s24r2b71 48)
)
Pstream initialized with:
    floatTransfer      : 0
    nProcsSimpleSum    : 0
    commsType          : nonBlocking
    polling iterations : 0
trapFpe: Floating point exception trapping enabled (FOAM_SIGFPE).
fileModificationChecking : Monitoring run-time modified files using timeStampMaster (fileModificationSkew 10)
allowSystemOperations : Allowing user-supplied system call operations

// * * * * * * * * * * * * * * * * * * * * * * * * * * * * * * * * * * * * * //
Create time

Create mesh for time = 0


PIMPLE: Operating solver in PISO mode

Reading thermophysical properties

Selecting thermodynamics package 
{
    type            hePsiThermo;
    mixture         pureMixture;
    transport       const;
    thermo          eConst;
    equationOfState perfectGas;
    specie          specie;
    energy          sensibleInternalEnergy;
}

Reading field U

Reading/calculating face flux field phi

--> FOAM Warning : 
    From function Foam::pressureControl::pressureControl(const Foam::GeometricField<double, Foam::fvPatchField, Foam::volMesh> &, const Foam::GeometricField<double, Foam::fvPatchField, Foam::volMesh> &, const Foam::dictionary &, bool)
    in file cfdTools/general/pressureControl/pressureControl.C at line 123
    Reading "/gpfs/scratch/pr1ejg00/pr1ejg20/openfoam/apio_64M/144/system/fvSolution.PIMPLE"
    'rhoMax' specified rather than 'pMax' or 'pMaxFactor'
    This is supported for backward-compatibility but 'pMax' or 'pMaxFactor' are more reliable.
--> FOAM Warning : 
    From function Foam::pressureControl::pressureControl(const Foam::GeometricField<double, Foam::fvPatchField, Foam::volMesh> &, const Foam::GeometricField<double, Foam::fvPatchField, Foam::volMesh> &, const Foam::dictionary &, bool)
    in file cfdTools/general/pressureControl/pressureControl.C at line 178
    Reading "/gpfs/scratch/pr1ejg00/pr1ejg20/openfoam/apio_64M/144/system/fvSolution.PIMPLE"
    'rhoMin' specified rather than 'pMin' or 'pMinFactor'
    This is supported for backward-compatibility but 'pMin' or 'pMinFactor' are more reliable.
pressureControl
    pMax 1726187.557059955
    pMin 4747.015781914877

Creating turbulence model

Selecting turbulence model type LES
Selecting LES turbulence model kEqn
Selecting LES delta type cubeRootVol
LES
{
    LESModel        kEqn;
    turbulence      on;
    printCoeffs     on;
    delta           cubeRootVol;
    cubeRootVolCoeffs
    {
        deltaCoeff      1;
    }
    PrandtlCoeffs
    {
        delta           cubeRootVol;
        cubeRootVolCoeffs
        {
            deltaCoeff      1;
        }
        smoothCoeffs
        {
            delta           cubeRootVol;
            cubeRootVolCoeffs
            {
                deltaCoeff      1;
            }
            maxDeltaRatio   1.1;
        }
        Cdelta          0.158;
    }
    vanDriestCoeffs
    {
        delta           cubeRootVol;
        cubeRootVolCoeffs
        {
            deltaCoeff      1;
        }
        smoothCoeffs
        {
            delta           cubeRootVol;
            cubeRootVolCoeffs
            {
                deltaCoeff      1;
            }
            maxDeltaRatio   1.1;
        }
        Aplus           26;
        Cdelta          0.158;
    }
    smoothCoeffs
    {
        delta           cubeRootVol;
        cubeRootVolCoeffs
        {
            deltaCoeff      1;
        }
        maxDeltaRatio   1.1;
    }
    Ce              1.048;
    Ck              0.094;
}

Creating field dpdt

Creating field kinetic energy K

No MRF models present

No finite volume options present
APIO_procNo = 128
APIO_procNo = 48
APIO_procNo = 131
APIO_procNo = 49
writeThread 49 on CPU 49
APIO_procNo = 10
APIO_procNo = 136
APIO_procNo = 53
writeThread 53 on CPU 53
APIO_procNo = 41
APIO_procNo = 137
writeThread 48 on CPU 48
APIO_procNo = 140
APIO_procNo = 52
writeThread 52 on CPU 52
APIO_procNo = 96
writeThread 96 on CPU 48
APIO_procNo = 54
APIO_procNo = 100
APIO_procNo = 60
APIO_procNo = 101
APIO_procNo = 63
APIO_procNo = 102
writeThread 102 on CPU APIO_procNo = 64
writeThread 64 on CPU 64
APIO_procNo = 103
APIO_procNo = 72
APIO_procNo = 104
APIO_procNo = 88
APIO_procNo = 105
writeThread 54 on CPU 54
APIO_procNo = 107
APIO_procNo = 58
APIO_procNo = 108
writeThread 60 on CPU 60
APIO_procNo = 109
writeThread 63 on CPU 63
APIO_procNo = 110
APIO_procNo = 79
APIO_procNo = 112
APIO_procNo = 51
APIO_procNo = 113
APIO_procNo = 57
APIO_procNo = 114
APIO_procNo = 62
APIO_procNo = 115
APIO_procNo = 66
APIO_procNo = 116
writeThread 116 on CPU 68
APIO_procNo = 67
APIO_procNo = 117
APIO_procNo = 69
APIO_procNo = 120
APIO_procNo = 71
APIO_procNo = 121
APIO_procNo = APIO_procNo = 122
APIO_procNo = 83
APIO_procNo = 123
APIO_procNo = 50
APIO_procNo = 130
APIO_procNo = 56
APIO_procNo = 142
writeThread 58 on CPU 58
APIO_procNo = 143
APIO_procNo = 61
APIO_procNo = 97
writeThread 62 on CPU 62
54
writeThread 66 on CPU 66
APIO_procNo = 106
writeThread 67 on CPU 67
APIO_procNo = 111
writeThread 69 on CPU 69
APIO_procNo = 129
writeThread 72 on CPU 72
writeThread 131 on CPU 83
APIO_procNo = 73
APIO_procNo = 132
APIO_procNo = 84
APIO_procNo = 134
writeThread 51 on CPU 51
APIO_procNo = 138
APIO_procNo = 55
APIO_procNo = 139
writeThread 56 on CPU 56
writeThread 108 on CPU 60
writeThread 57 on CPU 57
APIO_procNo = 34
writeThread 114 on CPU 66
APIO_procNo = 59
APIO_procNo = 133
writeThread 61 on CPU 61
APIO_procNo = 135
APIO_procNo = 65
writeThread 137 on CPU 89
APIO_procNo = 68
writeThread 103 on CPU 55
writeThread 71 on CPU 71
writeThread 105 on CPU 57
APIO_procNo = 74
writeThread 110 on CPU 62
APIO_procNo = 75
writeThread 115 on CPU 67
APIO_procNo = 76
writeThread 136 on CPU APIO_procNo = 77
writeThread 140 on CPU 92APIO_procNo = 78
88
80

APIO_procNo = 81
writeThread 10 on CPU 58
writeThread 106 on CPU 58
APIO_procNo = 82
writeThread 107 on CPU 59
APIO_procNo = 85
writeThread 109 on CPU 61
APIO_procNo = 86
writeThread 111 on CPU 63
APIO_procNo = 87
writeThread 120 on CPU 72
writeThread 88 on CPU 88
writeThread 128 on CPU 80
APIO_procNo = 90
writeThread 130 on CPU 82
APIO_procNo = 91
writeThread 97 on CPU 49
APIO_procNo = 93
writeThread 100 on CPU 52
APIO_procNo = 94
writeThread 101 on CPU 53
APIO_procNo = 95
writeThread 121 on CPU 73
writeThread 55 on CPU 55
writeThread 129 on CPU 81
writeThread 59 on CPU 59
APIO_procNo = 16
writeThread 132 on CPU 84
writeThread 65 on CPU 65
writeThread 133 on CPU 85
writeThread 68 on CPU 68
writeThread 134 on CPU 86
APIO_procNo = 70
writeThread 135 on CPU 87
writeThread 79 on CPU 79
writeThread 138 on CPU 90
writeThread 83 on CPU 83
APIO_procNo = 118
APIO_procNo = 89
APIO_procNo = 119
writeThread 90 on CPU writeThread 142 on CPU APIO_procNo = 92
writeThread 143 on CPU 95
writeThread 70 on CPU 70
writeThread 112 on CPU 64
writeThread 73 on CPU 73
writeThread 16 on CPU 64
writeThread 113 on CPU 65
writeThread 81 on CPU 81
writeThread 117 on CPU 69
writeThread 86 on CPU 86
APIO_procNo = 40
APIO_procNo = 124
writeThread 87 on CPU 87
APIO_procNo = 125
90
APIO_procNo = 0
APIO_masterNo = 0
APIO_procNo = 126
writeThread 93 on CPU 93
APIO_procNo = 127
writeThread 95 on CPU 95
94
writeThread 74 on CPU 74
writeThread 104 on CPU 56
writeThread 77 on CPU 77
writeThread 118 on CPU 70
writeThread 80 on CPU 80
writeThread 119 on CPU 71
writeThread 84 on CPU 84
writeThread 125 on CPU 77
writeThread 94 on CPU 94
writeThread 0 on CPU 48
writeThread 127 on CPU 79
writeThread 75 on CPU writeThread 40 on CPU APIO_procNo = 141
writeThread 76 on CPU 76
APIO_procNo = 24
writeThread 122 on CPU 74
writeThread 78 on CPU 78
writeThread 34 on CPU 82
writeThread 123 on CPU 75
88
APIO_procNo = 98
writeThread 139 on CPU APIO_procNo = 99
APIO_procNo = 33
91
writeThread 82 on CPU writeThread 141 on CPU 93
writeThread 85 on CPU 85
writeThread 124 on CPU 76
writeThread 89 on CPU 89
writeThread 126 on CPU 78
writeThread 91 on CPU 91
writeThread 98 on CPU 50
75
writeThread 99 on CPU 51
82
writeThread 92 on CPU 92
writeThread 50 on CPU 50
APIO_procNo = 12
APIO_procNo = 14
APIO_procNo = 15
writeThread 12 on CPU 60
writeThread 14 on CPU 62
APIO_procNo = 38
APIO_procNo = 36
writeThread 38 on CPU 86
writeThread 24 on CPU 72
writeThread 33 on CPU 81
APIO_procNo = 9
APIO_procNo = 8
writeThread 9 on CPU 57
writeThread 8 on CPU 56
writeThread 15 on CPU 63
APIO_procNo = 17
APIO_procNo = 32
APIO_procNo = 39
writeThread 17 on CPU 65
APIO_procNo = 27
APIO_procNo = 2
writeThread 36 on CPU 84
writeThread 39 on CPU 87
writeThread 2 on CPU 50
writeThread 27 on CPU 75
APIO_procNo = 26
writeThread 41 on CPU 89
writeThread 26 on CPU 74
writeThread 32 on CPU 80
APIO_procNo = 25
writeThread 25 on CPU 73
APIO_procNo = 37
writeThread 37 on CPU 85
APIO_procNo = 4
APIO_procNo = 1
APIO_procNo = 5
writeThread 1 on CPU 49
writeThread 5 on CPU 53
APIO_procNo = 35
writeThread 35 on CPU 83
writeThread 4 on CPU 52
APIO_procNo = 13
writeThread 13 on CPU 61
APIO_procNo = 28
APIO_procNo = 29
writeThread 28 on CPU 76
writeThread 29 on CPU 77
APIO_procNo = 30
APIO_procNo = 31
writeThread 30 on CPU 78
writeThread 31 on CPU 79
APIO_procNo = 6
APIO_procNo = 7
writeThread 6 on CPU writeThread 7 on CPU 55
54
APIO_procNo = 11
writeThread 11 on CPU 59
APIO_procNo = 3
writeThread 3 on CPU 51
APIO_procNo = 18
APIO_procNo = 19
writeThread 19 on CPU 67
writeThread 18 on CPU 66
APIO_procNo = 42
APIO_procNo = 43
writeThread 43 on CPU 91
writeThread 42 on CPU 90
APIO_procNo = 44
APIO_procNo = 45
APIO_procNo = 46
APIO_procNo = 47
writeThread 47 on CPU 95
writeThread 45 on CPU 93
writeThread 44 on CPU 92
writeThread 46 on CPU 94
APIO_procNo = 20
APIO_procNo = 21
APIO_procNo = 22
writeThread 22 on CPU 70
APIO_procNo = 23
writeThread 20 on CPU 68
writeThread 21 on CPU 69
writeThread 23 on CPU 71
Courant Number mean: 2.066056443486695e-11 max: 2.085039370078742e-05

Starting time loop

Courant Number mean: 2.066056443486695e-11 max: 2.085039370078742e-05
deltaT = 1.2e-09
Time = 1.2e-09

PIMPLE: iteration 1
diagonal:  Solving for rho, Initial residual = 0, Final residual = 0, No Iterations 0
DILUPBiCG:  Solving for Ux, Initial residual = 1, Final residual = 1.92429584290334e-15, No Iterations 1
DILUPBiCG:  Solving for Uy, Initial residual = 1, Final residual = 1.32777457917786e-24, No Iterations 2
DILUPBiCG:  Solving for Uz, Initial residual = 1, Final residual = 3.542578851811489e-26, No Iterations 2
DILUPBiCG:  Solving for e, Initial residual = 0.9999980105021931, Final residual = 1.289220268296302e-25, No Iterations 2
DILUPBiCG:  Solving for p, Initial residual = 0.9999992430745456, Final residual = 7.397099329402839e-10, No Iterations 1
pEqnloop: 0
diagonal:  Solving for rho, Initial residual = 0, Final residual = 0, No Iterations 0
time step continuity errors : sum local = 2.453169785751425e-16, global = -2.449332769316541e-16, cumulative = -2.449332769316541e-16
DILUPBiCG:  Solving for p, Initial residual = 2.336329913493171e-07, Final residual = 7.086966269463079e-17, No Iterations 1
pEqnloop: 1
diagonal:  Solving for rho, Initial residual = 0, Final residual = 0, No Iterations 0
time step continuity errors : sum local = 2.658891151902752e-16, global = -2.650416144634228e-16, cumulative = -5.099748913950769e-16
DILUPBiCG:  Solving for k, Initial residual = 0.9999999845285638, Final residual = 5.091527934484147e-26, No Iterations 2
ExecutionTime = 9.83 s  ClockTime = 20 s

APIO_IO_STEP = 0.0001654624938964844
Courant Number mean: 2.47928016078113e-11 max: 2.50199092129387e-05
deltaT = 1.44e-09
Time = 2.64e-09

PIMPLE: iteration 1
diagonal:  Solving for rho, Initial residual = 0, Final residual = 0, No Iterations 0
DILUPBiCG:  Solving for Ux, Initial residual = 0.3749195241010356, Final residual = 1.05977582877019e-16, No Iterations 1
DILUPBiCG:  Solving for Uy, Initial residual = 0.3749195240307768, Final residual = 1.734646556578568e-23, No Iterations 2
DILUPBiCG:  Solving for Uz, Initial residual = 0.2307598235439468, Final residual = 1.78694627973591e-26, No Iterations 2
DILUPBiCG:  Solving for e, Initial residual = 0.2307522965509664, Final residual = 1.064770854729823e-25, No Iterations 2
DILUPBiCG:  Solving for p, Initial residual = 0.2307598030095607, Final residual = 1.02916677508658e-10, No Iterations 1
pEqnloop: 0
diagonal:  Solving for rho, Initial residual = 0, Final residual = 0, No Iterations 0
time step continuity errors : sum local = 5.508762220781309e-16, global = -5.50811855972236e-16, cumulative = -1.060786747367313e-15
DILUPBiCG:  Solving for p, Initial residual = 1.574178745555155e-07, Final residual = 1.513555281325321e-14, No Iterations 1
pEqnloop: 1
diagonal:  Solving for rho, Initial residual = 0, Final residual = 0, No Iterations 0
time step continuity errors : sum local = 4.806564024722475e-16, global = -4.806529118262865e-16, cumulative = -1.541439659193599e-15
DILUPBiCG:  Solving for k, Initial residual = 0.7612498599438022, Final residual = 3.528729324188172e-26, No Iterations 2
ExecutionTime = 17.93 s  ClockTime = 36 s

APIO_IO_STEP = 0.08948230743408203
Courant Number mean: 2.975154167285736e-11 max: 3.002308059560313e-05
deltaT = 1.728e-09
Time = 4.368e-09

PIMPLE: iteration 1
diagonal:  Solving for rho, Initial residual = 0, Final residual = 0, No Iterations 0
DILUPBiCG:  Solving for Ux, Initial residual = 0.3231076447747328, Final residual = 1.485044579012068e-16, No Iterations 1
DILUPBiCG:  Solving for Uy, Initial residual = 0.3231076415827227, Final residual = 8.590064320374875e-23, No Iterations 2
DILUPBiCG:  Solving for Uz, Initial residual = 0.1406142643045808, Final residual = 1.501889712461085e-26, No Iterations 2
DILUPBiCG:  Solving for e, Initial residual = 0.1406073628696748, Final residual = 4.532450016124373e-26, No Iterations 2
DILUPBiCG:  Solving for p, Initial residual = 0.1406135787802059, Final residual = 9.030927179300308e-11, No Iterations 1
pEqnloop: 0
diagonal:  Solving for rho, Initial residual = 0, Final residual = 0, No Iterations 0
time step continuity errors : sum local = 6.621913521113924e-16, global = -6.621063408259521e-16, cumulative = -2.203546000019552e-15
DILUPBiCG:  Solving for p, Initial residual = 1.008233028983091e-07, Final residual = 9.672975874079442e-14, No Iterations 1
pEqnloop: 1
diagonal:  Solving for rho, Initial residual = 0, Final residual = 0, No Iterations 0
time step continuity errors : sum local = 6.434157326678352e-16, global = -6.434154925395058e-16, cumulative = -2.846961492559057e-15
DILUPBiCG:  Solving for k, Initial residual = 0.5223924251417685, Final residual = 1.304765926335507e-26, No Iterations 2
ExecutionTime = 26.62 s  ClockTime = 55 s

APIO_IO_STEP = 0.9826068878173828
Courant Number mean: 3.570211002172061e-11 max: 3.602653054273844e-05
deltaT = 2.0736e-09
Time = 6.4416e-09

PIMPLE: iteration 1
diagonal:  Solving for rho, Initial residual = 0, Final residual = 0, No Iterations 0
DILUPBiCG:  Solving for Ux, Initial residual = 0.2861774141604571, Final residual = 5.271025235648268e-17, No Iterations 1
DILUPBiCG:  Solving for Uy, Initial residual = 0.2861774122713601, Final residual = 2.659268889739201e-22, No Iterations 2
DILUPBiCG:  Solving for Uz, Initial residual = 0.1060778808370881, Final residual = 2.44406510938987e-26, No Iterations 2
DILUPBiCG:  Solving for e, Initial residual = 0.106069538991646, Final residual = 8.375812663809717e-26, No Iterations 2
DILUPBiCG:  Solving for p, Initial residual = 0.1060765517104356, Final residual = 9.810877859974909e-11, No Iterations 1
pEqnloop: 0
diagonal:  Solving for rho, Initial residual = 0, Final residual = 0, No Iterations 0
time step continuity errors : sum local = 3.550239457368753e-16, global = -3.522945768622053e-16, cumulative = -3.199256069421263e-15
DILUPBiCG:  Solving for p, Initial residual = 7.248281476980566e-08, Final residual = 3.701884048088746e-21, No Iterations 2
pEqnloop: 1
diagonal:  Solving for rho, Initial residual = 0, Final residual = 0, No Iterations 0
time step continuity errors : sum local = 3.837818755398214e-16, global = -3.832629582197511e-16, cumulative = -3.582519027641014e-15
DILUPBiCG:  Solving for k, Initial residual = 0.3755561811502259, Final residual = 2.623429599265557e-26, No Iterations 2
ExecutionTime = 36.39 s  ClockTime = 74 s

APIO_IO_STEP = 0.08562421798706055
Courant Number mean: 4.28429089331039e-11 max: 4.32301592384161e-05
deltaT = 2.48832e-09
Time = 8.92992e-09

PIMPLE: iteration 1
diagonal:  Solving for rho, Initial residual = 0, Final residual = 0, No Iterations 0
DILUPBiCG:  Solving for Ux, Initial residual = 0.2580115398611052, Final residual = 8.760473695583166e-17, No Iterations 1
DILUPBiCG:  Solving for Uy, Initial residual = 0.2580115386390046, Final residual = 6.699235431405868e-22, No Iterations 2
DILUPBiCG:  Solving for Uz, Initial residual = 0.08805270476279922, Final residual = 9.993306776116616e-26, No Iterations 2
DILUPBiCG:  Solving for e, Initial residual = 0.08804267264825744, Final residual = 1.167512700565076e-25, No Iterations 2
DILUPBiCG:  Solving for p, Initial residual = 0.08805068778140372, Final residual = 1.172758159291722e-10, No Iterations 1
pEqnloop: 0
diagonal:  Solving for rho, Initial residual = 0, Final residual = 0, No Iterations 0
time step continuity errors : sum local = 1.209921113844986e-16, global = -4.827009603644386e-17, cumulative = -3.630789123677457e-15
DILUPBiCG:  Solving for p, Initial residual = 4.026768074801094e-08, Final residual = 3.421151460938225e-14, No Iterations 1
pEqnloop: 1
diagonal:  Solving for rho, Initial residual = 0, Final residual = 0, No Iterations 0
time step continuity errors : sum local = 1.127846129347645e-16, global = -2.990973754481683e-17, cumulative = -3.660698861222274e-15
DILUPBiCG:  Solving for k, Initial residual = 0.2906875148496992, Final residual = 1.140162100056867e-26, No Iterations 2
ExecutionTime = 44.48 s  ClockTime = 90 s

APIO_IO_STEP = 0.3490591049194336
Courant Number mean: 5.141203809668445e-11 max: 5.187377896431859e-05
deltaT = 2.985983999999999e-09
Time = 1.19159e-08

PIMPLE: iteration 1
diagonal:  Solving for rho, Initial residual = 0, Final residual = 0, No Iterations 0
DILUPBiCG:  Solving for Ux, Initial residual = 0.236902696429217, Final residual = 5.483771005294204e-17, No Iterations 1
DILUPBiCG:  Solving for Uy, Initial residual = 0.2369026958353587, Final residual = 1.522802056477034e-21, No Iterations 2
DILUPBiCG:  Solving for Uz, Initial residual = 0.07712850025533956, Final residual = 2.067864541564649e-25, No Iterations 2
DILUPBiCG:  Solving for e, Initial residual = 0.0771159858017777, Final residual = 2.260289734604543e-25, No Iterations 2
DILUPBiCG:  Solving for p, Initial residual = 0.07712538295053235, Final residual = 1.479331734027784e-10, No Iterations 1
pEqnloop: 0
diagonal:  Solving for rho, Initial residual = 0, Final residual = 0, No Iterations 0
time step continuity errors : sum local = 3.626188738085566e-16, global = 3.614638624006703e-16, cumulative = -3.299234998821604e-15
DILUPBiCG:  Solving for p, Initial residual = 2.651622076102504e-08, Final residual = 2.562529963313753e-14, No Iterations 1
pEqnloop: 1
diagonal:  Solving for rho, Initial residual = 0, Final residual = 0, No Iterations 0
time step continuity errors : sum local = 3.781404351871142e-16, global = 3.724384064437461e-16, cumulative = -2.926796592377858e-15
DILUPBiCG:  Solving for k, Initial residual = 0.2385156420587176, Final residual = 3.988587226798533e-26, No Iterations 2
ExecutionTime = 54.48 s  ClockTime = 110 s

APIO_IO_STEP = 0.05479311943054199
Courant Number mean: 6.169524221677121e-11 max: 6.224506732903091e-05
deltaT = 3.583180799999999e-09
Time = 1.54991e-08

PIMPLE: iteration 1
diagonal:  Solving for rho, Initial residual = 0, Final residual = 0, No Iterations 0
DILUPBiCG:  Solving for Ux, Initial residual = 0.2210519034973983, Final residual = 3.800154880338727e-17, No Iterations 1
DILUPBiCG:  Solving for Uy, Initial residual = 0.2210519029786488, Final residual = 3.263590357532309e-21, No Iterations 2
DILUPBiCG:  Solving for Uz, Initial residual = 0.0698993834500847, Final residual = 5.299455609755655e-25, No Iterations 2
DILUPBiCG:  Solving for e, Initial residual = 0.06988419409463213, Final residual = 5.606403793958719e-25, No Iterations 2
DILUPBiCG:  Solving for p, Initial residual = 0.06989550787482281, Final residual = 1.930702333172773e-10, No Iterations 1
pEqnloop: 0
diagonal:  Solving for rho, Initial residual = 0, Final residual = 0, No Iterations 0
time step continuity errors : sum local = 3.226931610397268e-16, global = 3.216174036943011e-16, cumulative = -2.605179188683557e-15
DILUPBiCG:  Solving for p, Initial residual = 2.007881529736345e-08, Final residual = 1.898818322763967e-14, No Iterations 1
pEqnloop: 1
diagonal:  Solving for rho, Initial residual = 0, Final residual = 0, No Iterations 0
time step continuity errors : sum local = 3.144269014330813e-16, global = 3.136580398062253e-16, cumulative = -2.291521148877331e-15
DILUPBiCG:  Solving for k, Initial residual = 0.2042781441222427, Final residual = 4.490356995303669e-26, No Iterations 2
ExecutionTime = 62.87 s  ClockTime = 127 s

APIO_IO_STEP = 0.449399471282959
Courant Number mean: 7.403545226853004e-11 max: 7.468909815230516e-05
deltaT = 4.299816959999999e-09
Time = 1.97989e-08

PIMPLE: iteration 1
diagonal:  Solving for rho, Initial residual = 0, Final residual = 0, No Iterations 0
DILUPBiCG:  Solving for Ux, Initial residual = 0.2090173301279827, Final residual = 4.208856450605756e-17, No Iterations 1
DILUPBiCG:  Solving for Uy, Initial residual = 0.2090173297247698, Final residual = 6.728283575399279e-21, No Iterations 2
DILUPBiCG:  Solving for Uz, Initial residual = 0.06483302971263462, Final residual = 1.3142854196977e-24, No Iterations 2
DILUPBiCG:  Solving for e, Initial residual = 0.06481489267377226, Final residual = 1.360576102056735e-24, No Iterations 2
DILUPBiCG:  Solving for p, Initial residual = 0.06482825083585848, Final residual = 2.578904412674357e-10, No Iterations 1
pEqnloop: 0
diagonal:  Solving for rho, Initial residual = 0, Final residual = 0, No Iterations 0
time step continuity errors : sum local = 1.381847843156946e-16, global = -7.221681752297968e-17, cumulative = -2.363737966400311e-15
DILUPBiCG:  Solving for p, Initial residual = 1.743459502632587e-08, Final residual = 1.84264207828827e-14, No Iterations 1
pEqnloop: 1
diagonal:  Solving for rho, Initial residual = 0, Final residual = 0, No Iterations 0
time step continuity errors : sum local = 1.391238178612538e-16, global = -8.650214261742841e-17, cumulative = -2.450240109017739e-15
DILUPBiCG:  Solving for k, Initial residual = 0.1805908507983846, Final residual = 2.334580020442803e-25, No Iterations 2
ExecutionTime = 72.23999999999999 s  ClockTime = 146 s

APIO_IO_STEP = 1.485229969024658
Courant Number mean: 8.884424112198471e-11 max: 8.961976116517026e-05
deltaT = 5.159780351999998e-09
Time = 2.49587e-08

PIMPLE: iteration 1
diagonal:  Solving for rho, Initial residual = 0, Final residual = 0, No Iterations 0
DILUPBiCG:  Solving for Ux, Initial residual = 0.1997579583655035, Final residual = 3.635654614633737e-17, No Iterations 1
DILUPBiCG:  Solving for Uy, Initial residual = 0.1997579579417123, Final residual = 1.347322749051073e-20, No Iterations 2
DILUPBiCG:  Solving for Uz, Initial residual = 0.06113770784836675, Final residual = 3.149929351571148e-24, No Iterations 2
DILUPBiCG:  Solving for e, Initial residual = 0.0611159850135943, Final residual = 3.277351829939171e-24, No Iterations 2
DILUPBiCG:  Solving for p, Initial residual = 0.06113196385238338, Final residual = 3.50229350348388e-10, No Iterations 1
pEqnloop: 0
diagonal:  Solving for rho, Initial residual = 0, Final residual = 0, No Iterations 0
time step continuity errors : sum local = 2.861813116752531e-16, global = -2.829833645803523e-16, cumulative = -2.733223473598092e-15
DILUPBiCG:  Solving for p, Initial residual = 1.195753743229876e-08, Final residual = 1.398965707382812e-14, No Iterations 1
pEqnloop: 1
diagonal:  Solving for rho, Initial residual = 0, Final residual = 0, No Iterations 0
time step continuity errors : sum local = 2.807097036374001e-16, global = -2.767672532993765e-16, cumulative = -3.009990726897468e-15
DILUPBiCG:  Solving for k, Initial residual = 0.1635154008158117, Final residual = 7.396020688336348e-26, No Iterations 2
ExecutionTime = 81.97 s  ClockTime = 164 s

APIO_IO_STEP = 0.3037984371185303
Courant Number mean: 1.066155798266714e-10 max: 0.0001075334397309668
deltaT = 6.191736422399998e-09
Time = 3.11504e-08

PIMPLE: iteration 1
diagonal:  Solving for rho, Initial residual = 0, Final residual = 0, No Iterations 0
DILUPBiCG:  Solving for Ux, Initial residual = 0.1925419878006192, Final residual = 5.128503287280924e-17, No Iterations 1
DILUPBiCG:  Solving for Uy, Initial residual = 0.1925419874573925, Final residual = 2.633545705420543e-20, No Iterations 2
DILUPBiCG:  Solving for Uz, Initial residual = 0.05836281926639747, Final residual = 7.223517794118101e-24, No Iterations 2
DILUPBiCG:  Solving for e, Initial residual = 0.05833679305441947, Final residual = 7.478109375977916e-24, No Iterations 2
DILUPBiCG:  Solving for p, Initial residual = 0.05835590043476875, Final residual = 4.814956274544578e-10, No Iterations 1
pEqnloop: 0
diagonal:  Solving for rho, Initial residual = 0, Final residual = 0, No Iterations 0
time step continuity errors : sum local = 5.163072182996319e-16, global = -5.101659831330879e-16, cumulative = -3.520156710030556e-15
DILUPBiCG:  Solving for p, Initial residual = 8.009234511924392e-09, Final residual = 1.08861410937837e-14, No Iterations 1
pEqnloop: 1
diagonal:  Solving for rho, Initial residual = 0, Final residual = 0, No Iterations 0
time step continuity errors : sum local = 5.251875826759755e-16, global = -5.230197509737124e-16, cumulative = -4.043176461004268e-15
DILUPBiCG:  Solving for k, Initial residual = 0.1508056956136723, Final residual = 1.515270439932028e-25, No Iterations 2
ExecutionTime = 90.76000000000001 s  ClockTime = 183 s

APIO_IO_STEP = 1.70641016960144
Courant Number mean: 1.279423598888738e-10 max: 0.0001290253889150596
deltaT = 7.430083706879997e-09
Time = 3.85805e-08

PIMPLE: iteration 1
diagonal:  Solving for rho, Initial residual = 0, Final residual = 0, No Iterations 0
DILUPBiCG:  Solving for Ux, Initial residual = 0.1868538001533925, Final residual = 6.031896848578784e-17, No Iterations 1
DILUPBiCG:  Solving for Uy, Initial residual = 0.1868537998793867, Final residual = 5.039753061655424e-20, No Iterations 2
DILUPBiCG:  Solving for Uz, Initial residual = 0.05623286622769778, Final residual = 1.637514931244315e-23, No Iterations 2
DILUPBiCG:  Solving for e, Initial residual = 0.05620169844452504, Final residual = 1.701840589704106e-23, No Iterations 2
DILUPBiCG:  Solving for p, Initial residual = 0.05622459302888956, Final residual = 6.681427807242462e-10, No Iterations 1
pEqnloop: 0
diagonal:  Solving for rho, Initial residual = 0, Final residual = 0, No Iterations 0
time step continuity errors : sum local = 2.545207017203165e-16, global = 2.292146079019542e-16, cumulative = -3.813961853102314e-15
DILUPBiCG:  Solving for p, Initial residual = 9.912746145230351e-09, Final residual = 1.558990726103512e-14, No Iterations 1
pEqnloop: 1
diagonal:  Solving for rho, Initial residual = 0, Final residual = 0, No Iterations 0
time step continuity errors : sum local = 2.053984078725094e-16, global = 1.798900381496253e-16, cumulative = -3.634071814952688e-15
DILUPBiCG:  Solving for k, Initial residual = 0.1411036506641955, Final residual = 4.032371321040854e-25, No Iterations 2
ExecutionTime = 99.12 s  ClockTime = 204 s

APIO_IO_STEP = 3.739216089248657
Courant Number mean: 1.535362429323681e-10 max: 0.0001548093385833502
deltaT = 8.916100448255996e-09
Time = 4.74966e-08

PIMPLE: iteration 1
diagonal:  Solving for rho, Initial residual = 0, Final residual = 0, No Iterations 0
DILUPBiCG:  Solving for Ux, Initial residual = 0.1823252011201657, Final residual = 8.052533664005605e-17, No Iterations 1
DILUPBiCG:  Solving for Uy, Initial residual = 0.1823252008498747, Final residual = 9.464704103530989e-20, No Iterations 2
DILUPBiCG:  Solving for Uz, Initial residual = 0.05456982741541663, Final residual = 3.654094965304222e-23, No Iterations 2
DILUPBiCG:  Solving for e, Initial residual = 0.05453249456057017, Final residual = 3.805980271014569e-23, No Iterations 2
DILUPBiCG:  Solving for p, Initial residual = 0.05455990581330249, Final residual = 9.33827096461781e-10, No Iterations 1
pEqnloop: 0
diagonal:  Solving for rho, Initial residual = 0, Final residual = 0, No Iterations 0
time step continuity errors : sum local = 1.498047462791309e-16, global = -7.601301790859377e-17, cumulative = -3.710084832861282e-15
DILUPBiCG:  Solving for p, Initial residual = 9.445210409949842e-09, Final residual = 1.743650612438246e-14, No Iterations 1
pEqnloop: 1
diagonal:  Solving for rho, Initial residual = 0, Final residual = 0, No Iterations 0
time step continuity errors : sum local = 1.533206057081702e-16, global = -1.09520981780056e-16, cumulative = -3.819605814641338e-15
DILUPBiCG:  Solving for k, Initial residual = 0.1335466811497988, Final residual = 1.040250842740992e-24, No Iterations 2
ExecutionTime = 109.23 s  ClockTime = 224 s

APIO_IO_STEP = 0.119687557220459
Courant Number mean: 1.842515163819262e-10 max: 0.0001857409471672458
deltaT = 1.069932053790719e-08
Time = 5.81959e-08

PIMPLE: iteration 1
diagonal:  Solving for rho, Initial residual = 0, Final residual = 0, No Iterations 0
DILUPBiCG:  Solving for Ux, Initial residual = 0.1786887491099276, Final residual = 1.366553908760706e-16, No Iterations 1
DILUPBiCG:  Solving for Uy, Initial residual = 0.1786887489034323, Final residual = 1.748434024533544e-19, No Iterations 2
DILUPBiCG:  Solving for Uz, Initial residual = 0.05325349149567207, Final residual = 8.050788851360363e-23, No Iterations 2
DILUPBiCG:  Solving for e, Initial residual = 0.05320877030148433, Final residual = 8.42313164732911e-23, No Iterations 2
DILUPBiCG:  Solving for p, Initial residual = 0.05324158980043776, Final residual = 1.312535700526421e-09, No Iterations 1
pEqnloop: 0
diagonal:  Solving for rho, Initial residual = 0, Final residual = 0, No Iterations 0
time step continuity errors : sum local = 1.613771307077791e-16, global = -9.518333211129768e-17, cumulative = -3.914789146752635e-15
DILUPBiCG:  Solving for p, Initial residual = 6.637235516109629e-09, Final residual = 1.44435229005346e-14, No Iterations 1
pEqnloop: 1
diagonal:  Solving for rho, Initial residual = 0, Final residual = 0, No Iterations 0
time step continuity errors : sum local = 1.501925681060115e-16, global = -1.201725853637293e-16, cumulative = -4.034961732116365e-15
DILUPBiCG:  Solving for k, Initial residual = 0.1275637938264401, Final residual = 1.856933323632464e-24, No Iterations 2
ExecutionTime = 117.64 s  ClockTime = 242 s

APIO_IO_STEP = 1.608152627944946
Courant Number mean: 2.211137773198991e-10 max: 0.0002228458487620228
deltaT = 1.283918464548863e-08
Time = 7.10351e-08

PIMPLE: iteration 1
diagonal:  Solving for rho, Initial residual = 0, Final residual = 0, No Iterations 0
DILUPBiCG:  Solving for Ux, Initial residual = 0.1757467129104798, Final residual = 2.863024989944483e-16, No Iterations 1
DILUPBiCG:  Solving for Uy, Initial residual = 0.1757467127913214, Final residual = 3.184822918439995e-19, No Iterations 2
DILUPBiCG:  Solving for Uz, Initial residual = 0.05219971917073439, Final residual = 1.758138181177922e-22, No Iterations 2
DILUPBiCG:  Solving for e, Initial residual = 0.05214606671357842, Final residual = 1.843257355003454e-22, No Iterations 2
DILUPBiCG:  Solving for p, Initial residual = 0.05218547219914908, Final residual = 1.853094838507613e-09, No Iterations 1
pEqnloop: 0
diagonal:  Solving for rho, Initial residual = 0, Final residual = 0, No Iterations 0
time step continuity errors : sum local = 4.751845353867833e-16, global = -4.401455718905872e-16, cumulative = -4.475107304006952e-15
DILUPBiCG:  Solving for p, Initial residual = 5.581340516623533e-09, Final residual = 1.439013331597795e-14, No Iterations 1
pEqnloop: 1
diagonal:  Solving for rho, Initial residual = 0, Final residual = 0, No Iterations 0
time step continuity errors : sum local = 4.339228717346522e-16, global = -4.338827995876738e-16, cumulative = -4.908990103594625e-15
DILUPBiCG:  Solving for k, Initial residual = 0.1227635706594012, Final residual = 4.58411281202523e-24, No Iterations 2
ExecutionTime = 126.38 s  ClockTime = 262 s

APIO_IO_STEP = 2.519007921218872
Courant Number mean: 2.65354444015549e-10 max: 0.0002673531757326267
deltaT = 1.540702157458636e-08
Time = 8.64421e-08

PIMPLE: iteration 1
diagonal:  Solving for rho, Initial residual = 0, Final residual = 0, No Iterations 0
DILUPBiCG:  Solving for Ux, Initial residual = 0.1733503888964338, Final residual = 4.605835959425496e-16, No Iterations 1
DILUPBiCG:  Solving for Uy, Initial residual = 0.1733503888675801, Final residual = 5.734173310634041e-19, No Iterations 2
DILUPBiCG:  Solving for Uz, Initial residual = 0.05134783532353927, Final residual = 3.806041726704174e-22, No Iterations 2
DILUPBiCG:  Solving for e, Initial residual = 0.05128358566665469, Final residual = 4.010983329738999e-22, No Iterations 2
DILUPBiCG:  Solving for p, Initial residual = 0.0513308282737098, Final residual = 2.625662078615384e-09, No Iterations 1
pEqnloop: 0
diagonal:  Solving for rho, Initial residual = 0, Final residual = 0, No Iterations 0
time step continuity errors : sum local = 2.997811516196103e-16, global = 2.246707381511681e-16, cumulative = -4.684319365443457e-15
DILUPBiCG:  Solving for p, Initial residual = 6.359950087522264e-09, Final residual = 1.947709887989926e-14, No Iterations 1
pEqnloop: 1
diagonal:  Solving for rho, Initial residual = 0, Final residual = 0, No Iterations 0
time step continuity errors : sum local = 2.452752451642e-16, global = 2.368127070283179e-16, cumulative = -4.447506658415139e-15
DILUPBiCG:  Solving for k, Initial residual = 0.1188695542641289, Final residual = 1.199377406846656e-23, No Iterations 2
ExecutionTime = 135.41 s  ClockTime = 281 s

APIO_IO_STEP = 1.643889427185059
Courant Number mean: 3.184523155235254e-10 max: 0.0003207356037221301
deltaT = 1.848842588950363e-08
Time = 1.04931e-07

PIMPLE: iteration 1
diagonal:  Solving for rho, Initial residual = 0, Final residual = 0, No Iterations 0
DILUPBiCG:  Solving for Ux, Initial residual = 0.1713861679014692, Final residual = 8.282056323605991e-16, No Iterations 1
DILUPBiCG:  Solving for Uy, Initial residual = 0.1713861679086369, Final residual = 1.022818279858729e-18, No Iterations 2
DILUPBiCG:  Solving for Uz, Initial residual = 0.05065296332216267, Final residual = 8.205850020693783e-22, No Iterations 2
DILUPBiCG:  Solving for e, Initial residual = 0.05057604326174837, Final residual = 8.683334033459872e-22, No Iterations 2
DILUPBiCG:  Solving for p, Initial residual = 0.05063268392641631, Final residual = 3.731070538270361e-09, No Iterations 1
pEqnloop: 0
diagonal:  Solving for rho, Initial residual = 0, Final residual = 0, No Iterations 0
time step continuity errors : sum local = 3.934256677804019e-16, global = 2.874620790954133e-16, cumulative = -4.160044579319726e-15
DILUPBiCG:  Solving for p, Initial residual = 6.752006039527271e-09, Final residual = 2.469238313443518e-14, No Iterations 1
pEqnloop: 1
diagonal:  Solving for rho, Initial residual = 0, Final residual = 0, No Iterations 0
time step continuity errors : sum local = 2.798261095271116e-16, global = 2.764226653046431e-16, cumulative = -3.883621914015083e-15
DILUPBiCG:  Solving for k, Initial residual = 0.1156814569305749, Final residual = 3.259128405541426e-23, No Iterations 2
ExecutionTime = 145.47 s  ClockTime = 300 s

APIO_IO_STEP = 0.1713354587554932
Courant Number mean: 3.821836782912842e-10 max: 0.0003847571616184502
deltaT = 2.218611106740435e-08
Time = 1.27117e-07

PIMPLE: iteration 1
diagonal:  Solving for rho, Initial residual = 0, Final residual = 0, No Iterations 0
DILUPBiCG:  Solving for Ux, Initial residual = 0.169765975959627, Final residual = 1.395951341375225e-15, No Iterations 1
DILUPBiCG:  Solving for Uy, Initial residual = 0.1697659759686747, Final residual = 1.811143874611915e-18, No Iterations 2
DILUPBiCG:  Solving for Uz, Initial residual = 0.05008116439082721, Final residual = 1.760398959303366e-21, No Iterations 2
DILUPBiCG:  Solving for e, Initial residual = 0.04998909886710064, Final residual = 1.873697894149294e-21, No Iterations 2
DILUPBiCG:  Solving for p, Initial residual = 0.05005702934437809, Final residual = 5.314281774404357e-09, No Iterations 1
pEqnloop: 0
diagonal:  Solving for rho, Initial residual = 0, Final residual = 0, No Iterations 0
time step continuity errors : sum local = 4.261104156318729e-16, global = -2.290837283393119e-16, cumulative = -4.112705642354395e-15
DILUPBiCG:  Solving for p, Initial residual = 7.717724871343439e-09, Final residual = 3.384654610884966e-14, No Iterations 1
pEqnloop: 1
diagonal:  Solving for rho, Initial residual = 0, Final residual = 0, No Iterations 0
time step continuity errors : sum local = 2.492932417880965e-16, global = -2.327279129213541e-16, cumulative = -4.345433555275749e-15
DILUPBiCG:  Solving for k, Initial residual = 0.1130508733751608, Final residual = 9.313273463882863e-23, No Iterations 2
ExecutionTime = 155.39 s  ClockTime = 321 s

APIO_IO_STEP = 0.6448557376861572
Courant Number mean: 4.586828152581056e-10 max: 0.0004615302830703828
deltaT = 2.662333328088522e-08
Time = 1.5374e-07

PIMPLE: iteration 1
diagonal:  Solving for rho, Initial residual = 0, Final residual = 0, No Iterations 0
DILUPBiCG:  Solving for Ux, Initial residual = 0.1684205856807163, Final residual = 2.734988455607793e-15, No Iterations 1
DILUPBiCG:  Solving for Uy, Initial residual = 0.1684205856900001, Final residual = 3.189220968767973e-18, No Iterations 2
DILUPBiCG:  Solving for Uz, Initial residual = 0.04960627258553593, Final residual = 3.767613373301088e-21, No Iterations 2
DILUPBiCG:  Solving for e, Initial residual = 0.04949610170537731, Final residual = 4.036203304508078e-21, No Iterations 2
DILUPBiCG:  Solving for p, Initial residual = 0.04957759073491597, Final residual = 7.583743289914817e-09, No Iterations 1
pEqnloop: 0
diagonal:  Solving for rho, Initial residual = 0, Final residual = 0, No Iterations 0
time step continuity errors : sum local = 9.03542055181007e-16, global = -5.912166561742548e-16, cumulative = -4.936650211450004e-15
DILUPBiCG:  Solving for p, Initial residual = 9.836113258682761e-09, Final residual = 5.18479897450573e-14, No Iterations 1
pEqnloop: 1
diagonal:  Solving for rho, Initial residual = 0, Final residual = 0, No Iterations 0
time step continuity errors : sum local = 5.881939266382294e-16, global = -5.859126079564033e-16, cumulative = -5.522562819406407e-15
DILUPBiCG:  Solving for k, Initial residual = 0.1108656712402663, Final residual = 2.620433915054048e-22, No Iterations 2
ExecutionTime = 165.53 s  ClockTime = 341 s

APIO_IO_STEP = 0.9368536472320557
Courant Number mean: 5.505152374435858e-10 max: 0.0005535838593398193
deltaT = 3.194799993706226e-08
Time = 1.85688e-07

PIMPLE: iteration 1
diagonal:  Solving for rho, Initial residual = 0, Final residual = 0, No Iterations 0
DILUPBiCG:  Solving for Ux, Initial residual = 0.1672948815949091, Final residual = 5.408609463143195e-15, No Iterations 1
DILUPBiCG:  Solving for Uy, Initial residual = 0.1672948815992104, Final residual = 5.592549062943978e-18, No Iterations 2
DILUPBiCG:  Solving for Uz, Initial residual = 0.04920774228677149, Final residual = 8.055482748729047e-21, No Iterations 2
DILUPBiCG:  Solving for e, Initial residual = 0.04907595344377954, Final residual = 8.699655783778614e-21, No Iterations 2
DILUPBiCG:  Solving for p, Initial residual = 0.04917370391211952, Final residual = 1.083925373719913e-08, No Iterations 1
pEqnloop: 0
diagonal:  Solving for rho, Initial residual = 0, Final residual = 0, No Iterations 0
time step continuity errors : sum local = 6.62889373843093e-16, global = -3.020381253281029e-17, cumulative = -5.552766631939218e-15
DILUPBiCG:  Solving for p, Initial residual = 1.17275130684431e-08, Final residual = 7.476054010533865e-14, No Iterations 1
pEqnloop: 1
diagonal:  Solving for rho, Initial residual = 0, Final residual = 0, No Iterations 0
time step continuity errors : sum local = 1.159905332021123e-16, global = -5.092853590136752e-17, cumulative = -5.603695167840585e-15
DILUPBiCG:  Solving for k, Initial residual = 0.1090397033152666, Final residual = 7.547036721877825e-22, No Iterations 2
ExecutionTime = 175.61 s  ClockTime = 361 s

APIO_IO_STEP = 0.4209358692169189
Courant Number mean: 6.607665761738299e-10 max: 0.0006639444024474703
deltaT = 3.833759992447472e-08
Time = 2.24026e-07

PIMPLE: iteration 1
diagonal:  Solving for rho, Initial residual = 0, Final residual = 0, No Iterations 0
DILUPBiCG:  Solving for Ux, Initial residual = 0.1663444084674903, Final residual = 1.055173907672532e-14, No Iterations 1
DILUPBiCG:  Solving for Uy, Initial residual = 0.1663444084676156, Final residual = 9.777482360806747e-18, No Iterations 2
DILUPBiCG:  Solving for Uz, Initial residual = 0.04886915209371823, Final residual = 1.724202178203273e-20, No Iterations 2
DILUPBiCG:  Solving for e, Initial residual = 0.04871155479624115, Final residual = 1.879902347062479e-20, No Iterations 2
DILUPBiCG:  Solving for p, Initial residual = 0.04882884435034602, Final residual = 1.551207305072798e-08, No Iterations 1
pEqnloop: 0
diagonal:  Solving for rho, Initial residual = 0, Final residual = 0, No Iterations 0
time step continuity errors : sum local = 1.065314360172512e-15, global = 1.102650478874815e-16, cumulative = -5.493430119953104e-15
DILUPBiCG:  Solving for p, Initial residual = 1.565914855251737e-08, Final residual = 1.20884555320494e-13, No Iterations 1
pEqnloop: 1
diagonal:  Solving for rho, Initial residual = 0, Final residual = 0, No Iterations 0
time step continuity errors : sum local = 1.348154840207162e-16, global = 8.460453949418966e-17, cumulative = -5.408825580458914e-15
DILUPBiCG:  Solving for k, Initial residual = 0.1075057488413507, Final residual = 2.192515088565535e-21, No Iterations 2
ExecutionTime = 185.4 s  ClockTime = 380 s

APIO_IO_STEP = 0.6206448078155518
Courant Number mean: 7.931509158489711e-10 max: 0.0007962328698137146
deltaT = 4.600511990936966e-08
Time = 2.70031e-07

PIMPLE: iteration 1
diagonal:  Solving for rho, Initial residual = 0, Final residual = 0, No Iterations 0
DILUPBiCG:  Solving for Ux, Initial residual = 0.1655328421262874, Final residual = 2.055462886491309e-14, No Iterations 1
DILUPBiCG:  Solving for Uy, Initial residual = 0.1655328421255753, Final residual = 1.705884136168703e-17, No Iterations 2
DILUPBiCG:  Solving for Uz, Initial residual = 0.04857713511413164, Final residual = 3.702432280760281e-20, No Iterations 2
DILUPBiCG:  Solving for e, Initial residual = 0.04838876940615377, Final residual = 4.084275781002911e-20, No Iterations 2
DILUPBiCG:  Solving for p, Initial residual = 0.04852954042048647, Final residual = 2.222265020040493e-08, No Iterations 1
pEqnloop: 0
diagonal:  Solving for rho, Initial residual = 0, Final residual = 0, No Iterations 0
time step continuity errors : sum local = 1.866084636028003e-15, global = -2.678416337321534e-16, cumulative = -5.676667214191068e-15
DILUPBiCG:  Solving for p, Initial residual = 2.1834281271142e-08, Final residual = 2.04524666511846e-13, No Iterations 1
pEqnloop: 1
diagonal:  Solving for rho, Initial residual = 0, Final residual = 0, No Iterations 0
time step continuity errors : sum local = 2.697206232477456e-16, global = -2.614247986595967e-16, cumulative = -5.938092012850665e-15
DILUPBiCG:  Solving for k, Initial residual = 0.106210642030864, Final residual = 6.422008718595892e-21, No Iterations 2
ExecutionTime = 194.85 s  ClockTime = 400 s

APIO_IO_STEP = 0.5965986251831055
Courant Number mean: 9.521435221516919e-10 max: 0.0009547802819188322
deltaT = 5.520614389124359e-08
Time = 3.25237e-07

PIMPLE: iteration 1
diagonal:  Solving for rho, Initial residual = 0, Final residual = 0, No Iterations 0
DILUPBiCG:  Solving for Ux, Initial residual = 0.1648300837550254, Final residual = 3.970202649486376e-14, No Iterations 1
DILUPBiCG:  Solving for Uy, Initial residual = 0.1648300837476524, Final residual = 2.972618687450532e-17, No Iterations 2
DILUPBiCG:  Solving for Uz, Initial residual = 0.04832060394745902, Final residual = 7.997919031556089e-20, No Iterations 2
DILUPBiCG:  Solving for e, Initial residual = 0.0480955890266449, Final residual = 8.946582990945447e-20, No Iterations 2
DILUPBiCG:  Solving for p, Initial residual = 0.04826457685827094, Final residual = 3.186369836552317e-08, No Iterations 1
pEqnloop: 0
diagonal:  Solving for rho, Initial residual = 0, Final residual = 0, No Iterations 0
time step continuity errors : sum local = 2.965404783848984e-15, global = 1.803058270015118e-16, cumulative = -5.757786185849153e-15
DILUPBiCG:  Solving for p, Initial residual = 3.088443824083333e-08, Final residual = 3.521040346508619e-13, No Iterations 1
pEqnloop: 1
diagonal:  Solving for rho, Initial residual = 0, Final residual = 0, No Iterations 0
time step continuity errors : sum local = 2.65048858690333e-16, global = 2.07565171180149e-16, cumulative = -5.550221014669004e-15
DILUPBiCG:  Solving for k, Initial residual = 0.1051118191375849, Final residual = 1.895444925844353e-20, No Iterations 2
ExecutionTime = 203.93 s  ClockTime = 418 s

APIO_IO_STEP = 0.1522343158721924
Courant Number mean: 1.143144601517902e-09 max: 0.001144766058994463
deltaT = 6.62473726694923e-08
Time = 3.91484e-07

PIMPLE: iteration 1
diagonal:  Solving for rho, Initial residual = 0, Final residual = 0, No Iterations 0
DILUPBiCG:  Solving for Ux, Initial residual = 0.1642108090134497, Final residual = 7.795846256434579e-14, No Iterations 1
DILUPBiCG:  Solving for Uy, Initial residual = 0.1642108090062539, Final residual = 5.177847298004371e-17, No Iterations 2
DILUPBiCG:  Solving for Uz, Initial residual = 0.04809017019440599, Final residual = 1.743839769579929e-19, No Iterations 2
DILUPBiCG:  Solving for e, Initial residual = 0.04782162227292012, Final residual = 1.983532592619218e-19, No Iterations 2
DILUPBiCG:  Solving for p, Initial residual = 0.04802450488784083, Final residual = 4.571980859051952e-08, No Iterations 1
pEqnloop: 0
diagonal:  Solving for rho, Initial residual = 0, Final residual = 0, No Iterations 0
time step continuity errors : sum local = 4.957415864904107e-15, global = 1.977534950125561e-16, cumulative = -5.352467519656448e-15
DILUPBiCG:  Solving for p, Initial residual = 4.411928958529685e-08, Final residual = 6.140477037642153e-13, No Iterations 1
pEqnloop: 1
diagonal:  Solving for rho, Initial residual = 0, Final residual = 0, No Iterations 0
time step continuity errors : sum local = 2.221238083761051e-16, global = 2.11064563630507e-16, cumulative = -5.14140295602594e-15
DILUPBiCG:  Solving for k, Initial residual = 0.1041748254798822, Final residual = 5.636036052660482e-20, No Iterations 2
ExecutionTime = 213.3 s  ClockTime = 438 s

APIO_IO_STEP = 1.340740919113159
Courant Number mean: 1.372683189749373e-09 max: 0.001372384141132374
deltaT = 7.949684720339076e-08
Time = 4.70981e-07

PIMPLE: iteration 1
diagonal:  Solving for rho, Initial residual = 0, Final residual = 0, No Iterations 0
DILUPBiCG:  Solving for Ux, Initial residual = 0.1636533445185953, Final residual = 1.566257576843219e-13, No Iterations 1
DILUPBiCG:  Solving for Uy, Initial residual = 0.1636533445105272, Final residual = 9.02351130653203e-17, No Iterations 2
DILUPBiCG:  Solving for Uz, Initial residual = 0.04787770355002631, Final residual = 3.853750468954955e-19, No Iterations 2
DILUPBiCG:  Solving for e, Initial residual = 0.04755752911194023, Final residual = 4.469942702818907e-19, No Iterations 2
DILUPBiCG:  Solving for p, Initial residual = 0.04780112232256736, Final residual = 6.563951109621465e-08, No Iterations 1
pEqnloop: 0
diagonal:  Solving for rho, Initial residual = 0, Final residual = 0, No Iterations 0
time step continuity errors : sum local = 8.35871465159631e-15, global = 1.474198887005501e-16, cumulative = -4.99398306732539e-15
DILUPBiCG:  Solving for p, Initial residual = 6.382829645267952e-08, Final residual = 1.709104174765843e-21, No Iterations 2
pEqnloop: 1
diagonal:  Solving for rho, Initial residual = 0, Final residual = 0, No Iterations 0
time step continuity errors : sum local = 1.46670779106776e-16, global = 1.22629804749125e-16, cumulative = -4.871353262576265e-15
DILUPBiCG:  Solving for k, Initial residual = 0.1033714889469807, Final residual = 1.688006656128874e-19, No Iterations 2
ExecutionTime = 222.85 s  ClockTime = 458 s

APIO_IO_STEP = 0.622772216796875
Courant Number mean: 1.648673951175694e-09 max: 0.001645043660237681
deltaT = 9.53962166440689e-08
Time = 5.66377e-07

PIMPLE: iteration 1
diagonal:  Solving for rho, Initial residual = 0, Final residual = 0, No Iterations 0
DILUPBiCG:  Solving for Ux, Initial residual = 0.1631387975334092, Final residual = 3.128882847093313e-13, No Iterations 1
DILUPBiCG:  Solving for Uy, Initial residual = 0.1631387975264923, Final residual = 1.575148077339087e-16, No Iterations 2
DILUPBiCG:  Solving for Uz, Initial residual = 0.04767599177109605, Final residual = 8.673267976462609e-19, No Iterations 2
DILUPBiCG:  Solving for e, Initial residual = 0.04729473490812491, Final residual = 1.028662687508954e-18, No Iterations 2
DILUPBiCG:  Solving for p, Initial residual = 0.0475872163640404, Final residual = 9.428295255374734e-08, No Iterations 1
pEqnloop: 0
diagonal:  Solving for rho, Initial residual = 0, Final residual = 0, No Iterations 0
time step continuity errors : sum local = 1.462746201479479e-14, global = 5.111082236810438e-16, cumulative = -4.360245038895222e-15
DILUPBiCG:  Solving for p, Initial residual = 9.243923137250102e-08, Final residual = 3.674104903577985e-21, No Iterations 2
pEqnloop: 1
diagonal:  Solving for rho, Initial residual = 0, Final residual = 0, No Iterations 0
time step continuity errors : sum local = 5.112069632758924e-16, global = 5.047430777727739e-16, cumulative = -3.855501961122447e-15
DILUPBiCG:  Solving for k, Initial residual = 0.102678552678652, Final residual = 5.091724388764348e-19, No Iterations 2
ExecutionTime = 231.18 s  ClockTime = 475 s

APIO_IO_STEP = 0.7476050853729248
Courant Number mean: 1.98074528325392e-09 max: 0.00197161358078908
deltaT = 1.144754599728827e-07
Time = 6.80853e-07

PIMPLE: iteration 1
diagonal:  Solving for rho, Initial residual = 0, Final residual = 0, No Iterations 0
DILUPBiCG:  Solving for Ux, Initial residual = 0.162650375601457, Final residual = 6.20609072456368e-13, No Iterations 1
DILUPBiCG:  Solving for Uy, Initial residual = 0.1626503755955591, Final residual = 2.758581949631674e-16, No Iterations 2
DILUPBiCG:  Solving for Uz, Initial residual = 0.0474784788080251, Final residual = 1.998557199380262e-18, No Iterations 2
DILUPBiCG:  Solving for e, Initial residual = 0.04702517992527441, Final residual = 2.42908385720345e-18, No Iterations 2
DILUPBiCG:  Solving for p, Initial residual = 0.04737633552643482, Final residual = 1.354782454892391e-07, No Iterations 1
pEqnloop: 0
diagonal:  Solving for rho, Initial residual = 0, Final residual = 0, No Iterations 0
time step continuity errors : sum local = 2.450186889646601e-14, global = -1.538213014616939e-16, cumulative = -4.009323262584142e-15
DILUPBiCG:  Solving for p, Initial residual = 1.348193495454399e-07, Final residual = 1.131129031980893e-20, No Iterations 2
pEqnloop: 1
diagonal:  Solving for rho, Initial residual = 0, Final residual = 0, No Iterations 0
time step continuity errors : sum local = 1.813865042983447e-16, global = -1.485318250479538e-16, cumulative = -4.157855087632095e-15
DILUPBiCG:  Solving for k, Initial residual = 0.102076685207922, Final residual = 1.546864172131303e-18, No Iterations 2
ExecutionTime = 240.74 s  ClockTime = 494 s

APIO_IO_STEP = 0.2526459693908691
Courant Number mean: 2.380665807849491e-09 max: 0.002362724964306275
deltaT = 1.373705519674592e-07
Time = 8.18223e-07

PIMPLE: iteration 1
diagonal:  Solving for rho, Initial residual = 0, Final residual = 0, No Iterations 0
DILUPBiCG:  Solving for Ux, Initial residual = 0.1621728660397926, Final residual = 9.274847590939433e-23, No Iterations 2
DILUPBiCG:  Solving for Uy, Initial residual = 0.1621728660345042, Final residual = 4.858609276134495e-16, No Iterations 2
DILUPBiCG:  Solving for Uz, Initial residual = 0.04727908020802963, Final residual = 4.738781370955733e-18, No Iterations 2
DILUPBiCG:  Solving for e, Initial residual = 0.04674109762240695, Final residual = 5.910110045238921e-18, No Iterations 2
DILUPBiCG:  Solving for p, Initial residual = 0.04716262257987281, Final residual = 1.947340833798278e-07, No Iterations 1
pEqnloop: 0
diagonal:  Solving for rho, Initial residual = 0, Final residual = 0, No Iterations 0
time step continuity errors : sum local = 4.215601450408823e-14, global = 2.624378736285733e-16, cumulative = -3.895417214003522e-15
DILUPBiCG:  Solving for p, Initial residual = 1.974666332728381e-07, Final residual = 3.847898352631091e-20, No Iterations 2
pEqnloop: 1
diagonal:  Solving for rho, Initial residual = 0, Final residual = 0, No Iterations 0
time step continuity errors : sum local = 2.693419933439465e-16, global = 2.577302662366501e-16, cumulative = -3.637686947766872e-15
DILUPBiCG:  Solving for k, Initial residual = 0.1015496993643304, Final residual = 4.733221834653058e-18, No Iterations 2
ExecutionTime = 250.4 s  ClockTime = 513 s

APIO_IO_STEP = 0.9574244022369385
Courant Number mean: 2.862909935926952e-09 max: 0.002831151431733596
deltaT = 1.64844662360951e-07
Time = 9.83068e-07

PIMPLE: iteration 1
diagonal:  Solving for rho, Initial residual = 0, Final residual = 0, No Iterations 0
DILUPBiCG:  Solving for Ux, Initial residual = 0.1616922615587965, Final residual = 4.336260144853626e-22, No Iterations 2
DILUPBiCG:  Solving for Uy, Initial residual = 0.1616922615547778, Final residual = 8.637735359292275e-16, No Iterations 2
DILUPBiCG:  Solving for Uz, Initial residual = 0.04707203828796258, Final residual = 1.160942150190617e-17, No Iterations 2
DILUPBiCG:  Solving for e, Initial residual = 0.04643494723934017, Final residual = 1.48593095498654e-17, No Iterations 2
DILUPBiCG:  Solving for p, Initial residual = 0.04694076305061341, Final residual = 2.799771063590018e-07, No Iterations 1
pEqnloop: 0
diagonal:  Solving for rho, Initial residual = 0, Final residual = 0, No Iterations 0
time step continuity errors : sum local = 7.235652153139534e-14, global = 2.563892502943881e-16, cumulative = -3.381297697472484e-15
DILUPBiCG:  Solving for p, Initial residual = 2.900150963157493e-07, Final residual = 1.458369277978002e-19, No Iterations 2
pEqnloop: 1
diagonal:  Solving for rho, Initial residual = 0, Final residual = 0, No Iterations 0
time step continuity errors : sum local = 2.01102735559322e-16, global = 1.933505324478616e-16, cumulative = -3.187947165024622e-15
DILUPBiCG:  Solving for k, Initial residual = 0.1010839782492584, Final residual = 1.458926368631793e-17, No Iterations 2
ExecutionTime = 261.71 s  ClockTime = 536 s

APIO_IO_STEP = 0.2051889896392822
Courant Number mean: 3.445424698013504e-09 max: 0.003392299833723689
deltaT = 1.978135948331412e-07
Time = 1.18088e-06

PIMPLE: iteration 1
diagonal:  Solving for rho, Initial residual = 0, Final residual = 0, No Iterations 0
DILUPBiCG:  Solving for Ux, Initial residual = 0.1611955281296612, Final residual = 2.076683369230286e-21, No Iterations 2
DILUPBiCG:  Solving for Uy, Initial residual = 0.161195528126965, Final residual = 1.557760538085808e-15, No Iterations 2
DILUPBiCG:  Solving for Uz, Initial residual = 0.04685187130821755, Final residual = 2.94589984612306e-17, No Iterations 2
DILUPBiCG:  Solving for e, Initial residual = 0.04609939217832594, Final residual = 3.86423957865928e-17, No Iterations 2
DILUPBiCG:  Solving for p, Initial residual = 0.04670597404375083, Final residual = 4.026120260152552e-07, No Iterations 1
pEqnloop: 0
diagonal:  Solving for rho, Initial residual = 0, Final residual = 0, No Iterations 0
time step continuity errors : sum local = 1.246494401302307e-13, global = -4.74642813360623e-16, cumulative = -3.662589978385245e-15
DILUPBiCG:  Solving for p, Initial residual = 4.267992926965817e-07, Final residual = 5.769005587414146e-19, No Iterations 2
pEqnloop: 1
diagonal:  Solving for rho, Initial residual = 0, Final residual = 0, No Iterations 0
time step continuity errors : sum local = 5.786744654914736e-16, global = -5.769360594627514e-16, cumulative = -4.239526037847997e-15
DILUPBiCG:  Solving for k, Initial residual = 0.1006680441163888, Final residual = 4.530236971781449e-17, No Iterations 2
ExecutionTime = 270.26 s  ClockTime = 554 s

APIO_IO_STEP = 0.5060727596282959
Courant Number mean: 4.150694228569328e-09 max: 0.004064862143466083
deltaT = 2.373763137997695e-07
Time = 1.41826e-06

PIMPLE: iteration 1
diagonal:  Solving for rho, Initial residual = 0, Final residual = 0, No Iterations 0
DILUPBiCG:  Solving for Ux, Initial residual = 0.160670531916761, Final residual = 1.136870533353406e-20, No Iterations 2
DILUPBiCG:  Solving for Uy, Initial residual = 0.1606705319161188, Final residual = 2.869944860018616e-15, No Iterations 2
DILUPBiCG:  Solving for Uz, Initial residual = 0.04661339291538448, Final residual = 7.745541773407037e-17, No Iterations 2
DILUPBiCG:  Solving for e, Initial residual = 0.04572743428300575, Final residual = 1.03828973061053e-16, No Iterations 2
DILUPBiCG:  Solving for p, Initial residual = 0.04645412289877795, Final residual = 5.790455675549544e-07, No Iterations 1
pEqnloop: 0
diagonal:  Solving for rho, Initial residual = 0, Final residual = 0, No Iterations 0
time step continuity errors : sum local = 2.134625781159266e-13, global = 1.781850699980739e-16, cumulative = -4.061340967849923e-15
DILUPBiCG:  Solving for p, Initial residual = 6.295410469789423e-07, Final residual = 2.367406142782341e-18, No Iterations 2
pEqnloop: 1
diagonal:  Solving for rho, Initial residual = 0, Final residual = 0, No Iterations 0
time step continuity errors : sum local = 1.258098133766164e-16, global = -9.225712311146132e-18, cumulative = -4.070566680161069e-15
DILUPBiCG:  Solving for k, Initial residual = 0.1002922723336468, Final residual = 1.417354127029322e-16, No Iterations 2
ExecutionTime = 280.52 s  ClockTime = 574 s

APIO_IO_STEP = 0.03565049171447754
Courant Number mean: 5.007252815069783e-09 max: 0.004871711167259163
deltaT = 2.848515765597234e-07
Time = 1.70311e-06

PIMPLE: iteration 1
diagonal:  Solving for rho, Initial residual = 0, Final residual = 0, No Iterations 0
DILUPBiCG:  Solving for Ux, Initial residual = 0.1601061550638574, Final residual = 6.818872262082553e-20, No Iterations 2
DILUPBiCG:  Solving for Uy, Initial residual = 0.1601061550661233, Final residual = 5.450990980646249e-15, No Iterations 2
DILUPBiCG:  Solving for Uz, Initial residual = 0.04635182046478046, Final residual = 2.104630613375449e-16, No Iterations 2
DILUPBiCG:  Solving for e, Initial residual = 0.04531268210225343, Final residual = 2.874084508858771e-16, No Iterations 2
DILUPBiCG:  Solving for p, Initial residual = 0.04618192338094249, Final residual = 8.328757135546872e-07, No Iterations 1
pEqnloop: 0
diagonal:  Solving for rho, Initial residual = 0, Final residual = 0, No Iterations 0
time step continuity errors : sum local = 3.666083150313627e-13, global = 6.399052078568569e-16, cumulative = -3.430661472304212e-15
DILUPBiCG:  Solving for p, Initial residual = 9.299036903101723e-07, Final residual = 9.81259912460034e-18, No Iterations 2
pEqnloop: 1
diagonal:  Solving for rho, Initial residual = 0, Final residual = 0, No Iterations 0
time step continuity errors : sum local = 1.524153846952338e-16, global = 1.219320734847288e-16, cumulative = -3.308729398819483e-15
DILUPBiCG:  Solving for k, Initial residual = 0.09994863968434509, Final residual = 4.468009054625086e-16, No Iterations 2
ExecutionTime = 289.94 s  ClockTime = 593 s

APIO_IO_STEP = 0.5870311260223389
Courant Number mean: 6.051884248870887e-09 max: 0.00584117488340898
deltaT = 3.41821891871668e-07
Time = 2.04493e-06

PIMPLE: iteration 1
diagonal:  Solving for rho, Initial residual = 0, Final residual = 0, No Iterations 0
DILUPBiCG:  Solving for Ux, Initial residual = 0.1594926442273235, Final residual = 4.2574743931502e-19, No Iterations 2
DILUPBiCG:  Solving for Uy, Initial residual = 0.1594926442379455, Final residual = 1.078640387273468e-14, No Iterations 2
DILUPBiCG:  Solving for Uz, Initial residual = 0.04606310217080751, Final residual = 5.888539840493708e-16, No Iterations 2
DILUPBiCG:  Solving for e, Initial residual = 0.04484987086966742, Final residual = 8.160962893754779e-16, No Iterations 2
DILUPBiCG:  Solving for p, Initial residual = 0.04588727558552975, Final residual = 1.19803541183442e-06, No Iterations 1
pEqnloop: 0
diagonal:  Solving for rho, Initial residual = 0, Final residual = 0, No Iterations 0
time step continuity errors : sum local = 6.291563861297168e-13, global = 1.193058467332736e-15, cumulative = -2.115670931486748e-15
DILUPBiCG:  Solving for p, Initial residual = 1.375002499642407e-06, Final residual = 4.089340170856746e-17, No Iterations 2
pEqnloop: 1
diagonal:  Solving for rho, Initial residual = 0, Final residual = 0, No Iterations 0
time step continuity errors : sum local = 1.928116174795755e-16, global = -1.734228378372597e-16, cumulative = -2.289093769324007e-15
DILUPBiCG:  Solving for k, Initial residual = 0.09963055187509881, Final residual = 1.419060408070773e-15, No Iterations 2
ExecutionTime = 298.94 s  ClockTime = 611 s

APIO_IO_STEP = 0.09649062156677246
Courant Number mean: 7.332882701632563e-09 max: 0.007008909706437806
deltaT = 4.101862702460016e-07
Time = 2.45512e-06

PIMPLE: iteration 1
diagonal:  Solving for rho, Initial residual = 0, Final residual = 0, No Iterations 0
DILUPBiCG:  Solving for Ux, Initial residual = 0.1588222499182838, Final residual = 2.751962005104262e-18, No Iterations 2
DILUPBiCG:  Solving for Uy, Initial residual = 0.1588222499511371, Final residual = 2.246426269450621e-14, No Iterations 2
DILUPBiCG:  Solving for Uz, Initial residual = 0.04574442795164158, Final residual = 1.68944930223135e-15, No Iterations 2
DILUPBiCG:  Solving for e, Initial residual = 0.04433566621027961, Final residual = 2.365377961390634e-15, No Iterations 2
DILUPBiCG:  Solving for p, Initial residual = 0.04556973150949917, Final residual = 1.723303459334957e-06, No Iterations 1
pEqnloop: 0
diagonal:  Solving for rho, Initial residual = 0, Final residual = 0, No Iterations 0
time step continuity errors : sum local = 1.078697216892737e-12, global = 3.08316814116505e-15, cumulative = 7.940743718410431e-16
DILUPBiCG:  Solving for p, Initial residual = 2.033426868837171e-06, Final residual = 1.706291059407971e-16, No Iterations 2
pEqnloop: 1
diagonal:  Solving for rho, Initial residual = 0, Final residual = 0, No Iterations 0
time step continuity errors : sum local = 1.890141637038108e-16, global = -1.713005780145144e-16, cumulative = 6.227737938265286e-16
DILUPBiCG:  Solving for k, Initial residual = 0.0993326561511714, Final residual = 4.539621994644665e-15, No Iterations 2
ExecutionTime = 306.42 s  ClockTime = 629 s

APIO_IO_STEP = 3.137975931167603
Courant Number mean: 8.914965522884565e-09 max: 0.008420730813717404
deltaT = 4.922235242952019e-07
Time = 2.94734e-06

PIMPLE: iteration 1
diagonal:  Solving for rho, Initial residual = 0, Final residual = 0, No Iterations 0
DILUPBiCG:  Solving for Ux, Initial residual = 0.158090215152243, Final residual = 1.795325518428585e-17, No Iterations 2
DILUPBiCG:  Solving for Uy, Initial residual = 0.1580902152478011, Final residual = 4.995720209542203e-14, No Iterations 2
DILUPBiCG:  Solving for Uz, Initial residual = 0.04539499463824422, Final residual = 4.958622416803357e-15, No Iterations 2
DILUPBiCG:  Solving for e, Initial residual = 0.0437698992446274, Final residual = 6.961766321997324e-15, No Iterations 2
DILUPBiCG:  Solving for p, Initial residual = 0.04523114810379578, Final residual = 2.478775166248469e-06, No Iterations 1
pEqnloop: 0
diagonal:  Solving for rho, Initial residual = 0, Final residual = 0, No Iterations 0
time step continuity errors : sum local = 1.84741104234904e-12, global = 7.872346271372467e-15, cumulative = 8.495120065198996e-15
DILUPBiCG:  Solving for p, Initial residual = 3.004942003631055e-06, Final residual = 7.13309543641067e-16, No Iterations 2
pEqnloop: 1
diagonal:  Solving for rho, Initial residual = 0, Final residual = 0, No Iterations 0
time step continuity errors : sum local = 1.316029387603717e-16, global = 1.71290574077122e-17, cumulative = 8.512249122606708e-15
DILUPBiCG:  Solving for k, Initial residual = 0.09905055615413522, Final residual = 1.462067657707051e-14, No Iterations 2
ExecutionTime = 316.63 s  ClockTime = 650 s

APIO_IO_STEP = 0.01279807090759277
Courant Number mean: 1.088675857962573e-08 max: 0.01013697504854709
deltaT = 5.906682291542422e-07
Time = 3.53801e-06

PIMPLE: iteration 1
diagonal:  Solving for rho, Initial residual = 0, Final residual = 0, No Iterations 0
DILUPBiCG:  Solving for Ux, Initial residual = 0.1572961554319944, Final residual = 1.207532327715809e-16, No Iterations 2
DILUPBiCG:  Solving for Uy, Initial residual = 0.1572961556558711, Final residual = 1.1972295629059e-13, No Iterations 2
DILUPBiCG:  Solving for Uz, Initial residual = 0.04501722019736104, Final residual = 1.480633512477432e-14, No Iterations 2
DILUPBiCG:  Solving for e, Initial residual = 0.0431572627861565, Final residual = 2.663984198109937e-14, No Iterations 2
DILUPBiCG:  Solving for p, Initial residual = 0.04488006824798534, Final residual = 3.565324368426128e-06, No Iterations 1
pEqnloop: 0
diagonal:  Solving for rho, Initial residual = 0, Final residual = 0, No Iterations 0
time step continuity errors : sum local = 3.16122954791295e-12, global = 1.893970522582001e-14, cumulative = 2.745195434842672e-14
DILUPBiCG:  Solving for p, Initial residual = 4.430587236171424e-06, Final residual = 3.011076938981224e-15, No Iterations 2
pEqnloop: 1
diagonal:  Solving for rho, Initial residual = 0, Final residual = 0, No Iterations 0
time step continuity errors : sum local = 2.757794659559548e-16, global = 2.656670367969663e-16, cumulative = 2.771762138522369e-14
DILUPBiCG:  Solving for k, Initial residual = 0.09878028334297846, Final residual = 4.738041439281653e-14, No Iterations 2
ExecutionTime = 326.52 s  ClockTime = 670 s

APIO_IO_STEP = 0.8619077205657959
Courant Number mean: 1.337218857630032e-08 max: 0.01223925488478836
deltaT = 7.088018749850907e-07
Time = 4.24681e-06

PIMPLE: iteration 1
diagonal:  Solving for rho, Initial residual = 0, Final residual = 0, No Iterations 0
DILUPBiCG:  Solving for Ux, Initial residual = 0.1564459267033632, Final residual = 8.18861239546444e-16, No Iterations 2
DILUPBiCG:  Solving for Uy, Initial residual = 0.1564459270164054, Final residual = 3.06973277999109e-13, No Iterations 2
DILUPBiCG:  Solving for Uz, Initial residual = 0.04461842241515201, Final residual = 4.480232713706065e-14, No Iterations 2
DILUPBiCG:  Solving for e, Initial residual = 0.04251036584587282, Final residual = 1.013135455960972e-13, No Iterations 2
DILUPBiCG:  Solving for p, Initial residual = 0.04452796010000745, Final residual = 5.127922542896426e-06, No Iterations 1
pEqnloop: 0
diagonal:  Solving for rho, Initial residual = 0, Final residual = 0, No Iterations 0
time step continuity errors : sum local = 5.403741753279053e-12, global = 4.276201861098468e-14, cumulative = 7.047963999620836e-14
DILUPBiCG:  Solving for p, Initial residual = 6.509730731269907e-06, Final residual = 1.289216591576159e-14, No Iterations 2
pEqnloop: 1
diagonal:  Solving for rho, Initial residual = 0, Final residual = 0, No Iterations 0
time step continuity errors : sum local = 2.138521471787656e-16, global = -1.988882191039917e-16, cumulative = 7.028075177710437e-14
DILUPBiCG:  Solving for k, Initial residual = 0.09851729355564101, Final residual = 1.542859031697638e-13, No Iterations 2
ExecutionTime = 334.83 s  ClockTime = 689 s

APIO_IO_STEP = 2.261147260665894
Courant Number mean: 1.654776539172718e-08 max: 0.01484090814814272
deltaT = 8.505622499821088e-07
Time = 5.09737e-06

PIMPLE: iteration 1
diagonal:  Solving for rho, Initial residual = 0, Final residual = 0, No Iterations 0
DILUPBiCG:  Solving for Ux, Initial residual = 0.1555535919733902, Final residual = 5.468321633267794e-15, No Iterations 2
DILUPBiCG:  Solving for Uy, Initial residual = 0.1555535922040388, Final residual = 8.336457666138414e-13, No Iterations 2
DILUPBiCG:  Solving for Uz, Initial residual = 0.04421301758566178, Final residual = 1.370219240372893e-13, No Iterations 2
DILUPBiCG:  Solving for e, Initial residual = 0.04185200040436562, Final residual = 3.117011434644589e-13, No Iterations 2
DILUPBiCG:  Solving for p, Initial residual = 0.04418243848152954, Final residual = 7.374004132125398e-06, No Iterations 1
pEqnloop: 0
diagonal:  Solving for rho, Initial residual = 0, Final residual = 0, No Iterations 0
time step continuity errors : sum local = 9.227892421969915e-12, global = 9.720724352709466e-14, cumulative = 1.67487995304199e-13
DILUPBiCG:  Solving for p, Initial residual = 9.527693931127763e-06, Final residual = 5.604537836625517e-14, No Iterations 2
pEqnloop: 1
diagonal:  Solving for rho, Initial residual = 0, Final residual = 0, No Iterations 0
time step continuity errors : sum local = 2.616231073091598e-16, global = 1.778277438791752e-16, cumulative = 1.676658230480782e-13
DILUPBiCG:  Solving for k, Initial residual = 0.09825465207330612, Final residual = 5.039648735042254e-13, No Iterations 2
ExecutionTime = 344.18 s  ClockTime = 707 s

APIO_IO_STEP = 0.4399476051330566
Courant Number mean: 2.066891601450485e-08 max: 0.01810326025777023
deltaT = 1.02067469997853e-06
Time = 6.11805e-06

PIMPLE: iteration 1
diagonal:  Solving for rho, Initial residual = 0, Final residual = 0, No Iterations 0
DILUPBiCG:  Solving for Ux, Initial residual = 0.1546427284747309, Final residual = 3.585689467573893e-14, No Iterations 2
DILUPBiCG:  Solving for Uy, Initial residual = 0.154642728264471, Final residual = 2.871504000663379e-18, No Iterations 3
DILUPBiCG:  Solving for Uz, Initial residual = 0.04382509665754458, Final residual = 4.216446539160793e-13, No Iterations 2
DILUPBiCG:  Solving for e, Initial residual = 0.04121594133026128, Final residual = 9.579915544869757e-13, No Iterations 2
DILUPBiCG:  Solving for p, Initial residual = 0.0438631767519823, Final residual = 1.060245473563507e-05, No Iterations 1
pEqnloop: 0
diagonal:  Solving for rho, Initial residual = 0, Final residual = 0, No Iterations 0
time step continuity errors : sum local = 1.574476996883032e-11, global = 2.111509846435198e-13, cumulative = 3.788168076915981e-13
DILUPBiCG:  Solving for p, Initial residual = 1.387181278070247e-05, Final residual = 2.528285085695644e-13, No Iterations 2
pEqnloop: 1
diagonal:  Solving for rho, Initial residual = 0, Final residual = 0, No Iterations 0
time step continuity errors : sum local = 1.818687116170857e-16, global = -5.154848196039454e-17, cumulative = 3.787652592096377e-13
DILUPBiCG:  Solving for k, Initial residual = 0.0979799911332323, Final residual = 4.5697506268673e-17, No Iterations 3
ExecutionTime = 353.78 s  ClockTime = 728 s

APIO_IO_STEP = 1.217377185821533
Courant Number mean: 2.610901368497381e-08 max: 0.02226018296677974
deltaT = 1.224809639974236e-06
Time = 7.34286e-06

PIMPLE: iteration 1
diagonal:  Solving for rho, Initial residual = 0, Final residual = 0, No Iterations 0
DILUPBiCG:  Solving for Ux, Initial residual = 0.1537465953928925, Final residual = 2.297192949878225e-13, No Iterations 2
DILUPBiCG:  Solving for Uy, Initial residual = 0.1537465937355249, Final residual = 1.936038962668213e-17, No Iterations 3
DILUPBiCG:  Solving for Uz, Initial residual = 0.04349112065536746, Final residual = 4.240690177351841e-18, No Iterations 3
DILUPBiCG:  Solving for e, Initial residual = 0.04065043327170695, Final residual = 1.667070069948389e-17, No Iterations 3
DILUPBiCG:  Solving for p, Initial residual = 0.0435920676017531, Final residual = 1.524405833274223e-05, No Iterations 1
pEqnloop: 0
diagonal:  Solving for rho, Initial residual = 0, Final residual = 0, No Iterations 0
time step continuity errors : sum local = 2.684909861909854e-11, global = 4.313914933607756e-13, cumulative = 8.101567525704133e-13
DILUPBiCG:  Solving for p, Initial residual = 2.00262420384128e-05, Final residual = 2.810798006367726e-16, No Iterations 3
pEqnloop: 1
diagonal:  Solving for rho, Initial residual = 0, Final residual = 0, No Iterations 0
time step continuity errors : sum local = 1.593107670951788e-16, global = -4.566017726238343e-17, cumulative = 8.101110923931509e-13
DILUPBiCG:  Solving for k, Initial residual = 0.09767088086935004, Final residual = 4.599356126649839e-16, No Iterations 3
ExecutionTime = 364.6 s  ClockTime = 750 s

APIO_IO_STEP = 0.503333568572998
Courant Number mean: 3.341531528214133e-08 max: 0.02765365366190635
deltaT = 1.469771567969084e-06
Time = 8.81263e-06

PIMPLE: iteration 1
diagonal:  Solving for rho, Initial residual = 0, Final residual = 0, No Iterations 0
DILUPBiCG:  Solving for Ux, Initial residual = 0.1529051170294696, Final residual = 2.268088911488091e-18, No Iterations 3
DILUPBiCG:  Solving for Uy, Initial residual = 0.1529051128775018, Final residual = 1.29889808059438e-16, No Iterations 3
DILUPBiCG:  Solving for Uz, Initial residual = 0.04326159188795044, Final residual = 1.813467682533703e-17, No Iterations 3
DILUPBiCG:  Solving for e, Initial residual = 0.04021645481540196, Final residual = 8.123299117276579e-17, No Iterations 3
DILUPBiCG:  Solving for p, Initial residual = 0.04338946729988218, Final residual = 2.192309202889682e-05, No Iterations 1
pEqnloop: 0
diagonal:  Solving for rho, Initial residual = 0, Final residual = 0, No Iterations 0
time step continuity errors : sum local = 4.578059620720488e-11, global = 7.852466890970659e-13, cumulative = 1.595357781490217e-12
DILUPBiCG:  Solving for p, Initial residual = 2.84845902608428e-05, Final residual = 1.882761953388077e-15, No Iterations 3
pEqnloop: 1
diagonal:  Solving for rho, Initial residual = 0, Final residual = 0, No Iterations 0
time step continuity errors : sum local = 1.821777748679078e-16, global = -6.411603011036983e-17, cumulative = 1.595293665460106e-12
DILUPBiCG:  Solving for k, Initial residual = 0.09728878553762536, Final residual = 1.594141691738945e-15, No Iterations 3
ExecutionTime = 375.77 s  ClockTime = 771 s

APIO_IO_STEP = 0.43448805809021
Courant Number mean: 4.338544473617602e-08 max: 0.03478177421986409
deltaT = 1.7637258815629e-06
Time = 1.05764e-05

PIMPLE: iteration 1
diagonal:  Solving for rho, Initial residual = 0, Final residual = 0, No Iterations 0
DILUPBiCG:  Solving for Ux, Initial residual = 0.1521560963561591, Final residual = 3.346154959175223e-17, No Iterations 3
DILUPBiCG:  Solving for Uy, Initial residual = 0.1521560874700115, Final residual = 8.674154811751145e-16, No Iterations 3
DILUPBiCG:  Solving for Uz, Initial residual = 0.04319969978283397, Final residual = 9.624951077306741e-17, No Iterations 3
DILUPBiCG:  Solving for e, Initial residual = 0.03997927519192031, Final residual = 3.864600512972919e-16, No Iterations 3
DILUPBiCG:  Solving for p, Initial residual = 0.04326627669823593, Final residual = 3.1551292573519e-05, No Iterations 1
pEqnloop: 0
diagonal:  Solving for rho, Initial residual = 0, Final residual = 0, No Iterations 0
time step continuity errors : sum local = 7.810476560237288e-11, global = 1.1058342876623e-12, cumulative = 2.701127953122407e-12
DILUPBiCG:  Solving for p, Initial residual = 3.933197148436451e-05, Final residual = 1.25292658851917e-14, No Iterations 3
pEqnloop: 1
diagonal:  Solving for rho, Initial residual = 0, Final residual = 0, No Iterations 0
time step continuity errors : sum local = 1.928138756862801e-16, global = -2.977103888210602e-18, cumulative = 2.701124976018518e-12
DILUPBiCG:  Solving for k, Initial residual = 0.09677268679215635, Final residual = 1.792532412612622e-15, No Iterations 3
ExecutionTime = 385.94 s  ClockTime = 791 s

APIO_IO_STEP = 0.1863317489624023
Courant Number mean: 5.716648602955202e-08 max: 0.04435551142057405
deltaT = 2.11647105787548e-06
Time = 1.26928e-05

PIMPLE: iteration 1
diagonal:  Solving for rho, Initial residual = 0, Final residual = 0, No Iterations 0
DILUPBiCG:  Solving for Ux, Initial residual = 0.1515187070205937, Final residual = 4.759700636142845e-16, No Iterations 3
DILUPBiCG:  Solving for Uy, Initial residual = 0.1515186881007407, Final residual = 6.171373651235785e-15, No Iterations 3
DILUPBiCG:  Solving for Uz, Initial residual = 0.04337441032763314, Final residual = 7.25376226043994e-16, No Iterations 3
DILUPBiCG:  Solving for e, Initial residual = 0.03998863303606116, Final residual = 1.754827067676578e-15, No Iterations 3
DILUPBiCG:  Solving for p, Initial residual = 0.04321213272420182, Final residual = 4.546220954081676e-05, No Iterations 1
pEqnloop: 0
diagonal:  Solving for rho, Initial residual = 0, Final residual = 0, No Iterations 0
time step continuity errors : sum local = 1.334035578607133e-10, global = 4.625798679415016e-13, cumulative = 3.16370484396002e-12
DILUPBiCG:  Solving for p, Initial residual = 5.356831401248199e-05, Final residual = 7.204229735542967e-14, No Iterations 3
pEqnloop: 1
diagonal:  Solving for rho, Initial residual = 0, Final residual = 0, No Iterations 0
time step continuity errors : sum local = 1.635630901168745e-16, global = 2.299760244288192e-17, cumulative = 3.163727841562463e-12
DILUPBiCG:  Solving for k, Initial residual = 0.09603601863477702, Final residual = 3.591923627150681e-15, No Iterations 3
ExecutionTime = 394.96 s  ClockTime = 812 s

APIO_IO_STEP = 2.408975839614868
Courant Number mean: 7.637930463591453e-08 max: 0.05734723749704299
deltaT = 2.539765269450577e-06
Time = 1.52326e-05

PIMPLE: iteration 1
diagonal:  Solving for rho, Initial residual = 0, Final residual = 0, No Iterations 0
DILUPBiCG:  Solving for Ux, Initial residual = 0.1509720307158397, Final residual = 6.099417483406969e-15, No Iterations 3
DILUPBiCG:  Solving for Uy, Initial residual = 0.1509719901422809, Final residual = 3.652157917908121e-14, No Iterations 3
DILUPBiCG:  Solving for Uz, Initial residual = 0.04384513483677567, Final residual = 5.265002226579635e-15, No Iterations 3
DILUPBiCG:  Solving for e, Initial residual = 0.04024525454124552, Final residual = 7.416075578415288e-15, No Iterations 3
DILUPBiCG:  Solving for p, Initial residual = 0.04318393733765531, Final residual = 6.557460451765216e-05, No Iterations 1
pEqnloop: 0
diagonal:  Solving for rho, Initial residual = 0, Final residual = 0, No Iterations 0
[...]
time step continuity errors : sum local = 1.739326556273389e-16, global = -4.38683625788419e-18, cumulative = -1.664313011392482e-09
DILUPBiCG:  Solving for k, Initial residual = 0.03478779220296219, Final residual = 3.485730214523307e-15, No Iterations 4
ExecutionTime = 679.66 s  ClockTime = 1384 s

APIO_IO_STEP = 0.641880989074707
Courant Number mean: 6.31230102688241e-07 max: 0.2053853077005572
deltaT = 3.874678564092876e-06
Time = 6.1226e-05

PIMPLE: iteration 1
diagonal:  Solving for rho, Initial residual = 0, Final residual = 0, No Iterations 0
DILUPBiCG:  Solving for Ux, Initial residual = 0.06245880010866021, Final residual = 4.317340890834389e-15, No Iterations 4
DILUPBiCG:  Solving for Uy, Initial residual = 0.06245791146686407, Final residual = 4.903891589235057e-15, No Iterations 4
DILUPBiCG:  Solving for Uz, Initial residual = 0.02284521389713958, Final residual = 9.450200178980441e-14, No Iterations 4
DILUPBiCG:  Solving for e, Initial residual = 0.0202798759609677, Final residual = 8.669028088183371e-15, No Iterations 4
DILUPBiCG:  Solving for p, Initial residual = 0.02434937830399065, Final residual = 8.571862701071258e-05, No Iterations 1
pEqnloop: 0
diagonal:  Solving for rho, Initial residual = 0, Final residual = 0, No Iterations 0
time step continuity errors : sum local = 1.172705994532475e-09, global = -1.472000011746562e-10, cumulative = -1.811513012567138e-09
DILUPBiCG:  Solving for p, Initial residual = 0.0002027982460143795, Final residual = 6.654106778957615e-16, No Iterations 5
pEqnloop: 1
diagonal:  Solving for rho, Initial residual = 0, Final residual = 0, No Iterations 0
time step continuity errors : sum local = 1.64191161899409e-16, global = -1.253156535950262e-17, cumulative = -1.811513025098704e-09
DILUPBiCG:  Solving for k, Initial residual = 0.03189769905016398, Final residual = 3.528448382220596e-15, No Iterations 4
ExecutionTime = 693.13 s  ClockTime = 1412 s

APIO_IO_STEP = 1.311692953109741
Courant Number mean: 6.75953020559579e-07 max: 0.2046321282226584
deltaT = 3.786969913030326e-06
Time = 6.5013e-05

PIMPLE: iteration 1
diagonal:  Solving for rho, Initial residual = 0, Final residual = 0, No Iterations 0
DILUPBiCG:  Solving for Ux, Initial residual = 0.05769568836043707, Final residual = 3.651721558572808e-15, No Iterations 4
DILUPBiCG:  Solving for Uy, Initial residual = 0.05769476373015823, Final residual = 4.000744112029396e-15, No Iterations 4
DILUPBiCG:  Solving for Uz, Initial residual = 0.02132245182724246, Final residual = 1.771009341402366e-14, No Iterations 4
DILUPBiCG:  Solving for e, Initial residual = 0.01903759639942298, Final residual = 1.310315892469857e-13, No Iterations 4
DILUPBiCG:  Solving for p, Initial residual = 0.02576881476290883, Final residual = 8.578219052772152e-05, No Iterations 1
pEqnloop: 0
diagonal:  Solving for rho, Initial residual = 0, Final residual = 0, No Iterations 0
time step continuity errors : sum local = 1.249097407971253e-09, global = -1.635493518391879e-10, cumulative = -1.975062376937891e-09
DILUPBiCG:  Solving for p, Initial residual = 0.0001905174430525302, Final residual = 6.848377941763221e-14, No Iterations 4
pEqnloop: 1
diagonal:  Solving for rho, Initial residual = 0, Final residual = 0, No Iterations 0
time step continuity errors : sum local = 1.687297338828015e-16, global = -4.624482367015853e-17, cumulative = -1.975062423182715e-09
DILUPBiCG:  Solving for k, Initial residual = 0.02943327908423825, Final residual = 3.431938385831185e-15, No Iterations 4
ExecutionTime = 705.09 s  ClockTime = 1440 s

APIO_IO_STEP = 4.995960235595703
Courant Number mean: 7.172145204581523e-07 max: 0.2040794067336274
deltaT = 3.711270993621823e-06
Time = 6.87243e-05

PIMPLE: iteration 1
diagonal:  Solving for rho, Initial residual = 0, Final residual = 0, No Iterations 0
DILUPBiCG:  Solving for Ux, Initial residual = 0.05348693863644215, Final residual = 3.002937554179263e-15, No Iterations 4
DILUPBiCG:  Solving for Uy, Initial residual = 0.05348590414799483, Final residual = 3.325448060629053e-15, No Iterations 4
DILUPBiCG:  Solving for Uz, Initial residual = 0.01967287632905463, Final residual = 1.174140543182289e-14, No Iterations 4
DILUPBiCG:  Solving for e, Initial residual = 0.01905551587478634, Final residual = 1.033740195225192e-15, No Iterations 4
DILUPBiCG:  Solving for p, Initial residual = 0.02547952644424243, Final residual = 8.450703459239387e-05, No Iterations 1
pEqnloop: 0
diagonal:  Solving for rho, Initial residual = 0, Final residual = 0, No Iterations 0
time step continuity errors : sum local = 1.30373790115808e-09, global = -2.0459392248051e-10, cumulative = -2.179656345663225e-09
DILUPBiCG:  Solving for p, Initial residual = 0.0005572586695983986, Final residual = 7.236520901572444e-13, No Iterations 4
pEqnloop: 1
diagonal:  Solving for rho, Initial residual = 0, Final residual = 0, No Iterations 0
time step continuity errors : sum local = 1.739519075280937e-16, global = -1.299377830394856e-18, cumulative = -2.179656346962603e-09
DILUPBiCG:  Solving for k, Initial residual = 0.02731927755910148, Final residual = 3.448277368192296e-15, No Iterations 4
ExecutionTime = 720.72 s  ClockTime = 1471 s

APIO_IO_STEP = 0.09332752227783203
Courant Number mean: 7.592292185348211e-07 max: 0.203615597510213
deltaT = 3.645370039429965e-06
Time = 7.23696e-05

PIMPLE: iteration 1
diagonal:  Solving for rho, Initial residual = 0, Final residual = 0, No Iterations 0
DILUPBiCG:  Solving for Ux, Initial residual = 0.04991079474157849, Final residual = 2.55035170761928e-15, No Iterations 4
DILUPBiCG:  Solving for Uy, Initial residual = 0.04990988787432173, Final residual = 4.149372272103771e-15, No Iterations 4
DILUPBiCG:  Solving for Uz, Initial residual = 0.01818582005014553, Final residual = 9.64262652137312e-13, No Iterations 4
DILUPBiCG:  Solving for e, Initial residual = 0.01852126280622673, Final residual = 1.158368762737584e-15, No Iterations 4
DILUPBiCG:  Solving for p, Initial residual = 0.02388024678492802, Final residual = 7.894125121598271e-05, No Iterations 1
pEqnloop: 0
diagonal:  Solving for rho, Initial residual = 0, Final residual = 0, No Iterations 0
time step continuity errors : sum local = 1.285244401381996e-09, global = -2.204318055251868e-10, cumulative = -2.40008815248779e-09
DILUPBiCG:  Solving for p, Initial residual = 0.0003682696357323622, Final residual = 3.880881196686476e-13, No Iterations 4
pEqnloop: 1
diagonal:  Solving for rho, Initial residual = 0, Final residual = 0, No Iterations 0
time step continuity errors : sum local = 1.806360065707186e-16, global = 4.081446990433293e-17, cumulative = -2.40008811167332e-09
DILUPBiCG:  Solving for k, Initial residual = 0.02548103175332493, Final residual = 5.093722001591759e-15, No Iterations 4
ExecutionTime = 733.09 s  ClockTime = 1500 s

APIO_IO_STEP = 4.36308741569519
Courant Number mean: 8.052540696458776e-07 max: 0.2031686521323826
deltaT = 3.588516241230622e-06
Time = 7.59582e-05

PIMPLE: iteration 1
diagonal:  Solving for rho, Initial residual = 0, Final residual = 0, No Iterations 0
DILUPBiCG:  Solving for Ux, Initial residual = 0.04692240332640766, Final residual = 2.30065809598203e-15, No Iterations 4
DILUPBiCG:  Solving for Uy, Initial residual = 0.04692119043296346, Final residual = 9.202648118024952e-15, No Iterations 4
DILUPBiCG:  Solving for Uz, Initial residual = 0.01709207571837732, Final residual = 3.356525842405461e-15, No Iterations 4
DILUPBiCG:  Solving for e, Initial residual = 0.01746808019695509, Final residual = 2.10681984613576e-15, No Iterations 4
DILUPBiCG:  Solving for p, Initial residual = 0.02223906895207928, Final residual = 6.720520470855717e-05, No Iterations 1
pEqnloop: 0
diagonal:  Solving for rho, Initial residual = 0, Final residual = 0, No Iterations 0
time step continuity errors : sum local = 1.150819730012269e-09, global = -1.7921589862771e-10, cumulative = -2.57930401030103e-09
DILUPBiCG:  Solving for p, Initial residual = 0.0002069362618985778, Final residual = 2.051770732787286e-13, No Iterations 4
pEqnloop: 1
diagonal:  Solving for rho, Initial residual = 0, Final residual = 0, No Iterations 0
time step continuity errors : sum local = 1.928140017350652e-16, global = -7.91113894405753e-17, cumulative = -2.579304089412419e-09
DILUPBiCG:  Solving for k, Initial residual = 0.02386753585701353, Final residual = 7.553168580815407e-15, No Iterations 4
ExecutionTime = 744.97 s  ClockTime = 1524 s

APIO_IO_STEP = 0.4421606063842773
Courant Number mean: 8.523518456762717e-07 max: 0.1996717284162521
deltaT = 3.594415964336912e-06
Time = 7.95526e-05

PIMPLE: iteration 1
diagonal:  Solving for rho, Initial residual = 0, Final residual = 0, No Iterations 0
DILUPBiCG:  Solving for Ux, Initial residual = 0.04484756888785532, Final residual = 2.728792754632194e-15, No Iterations 4
DILUPBiCG:  Solving for Uy, Initial residual = 0.04484605341189168, Final residual = 1.907923678265439e-14, No Iterations 4
DILUPBiCG:  Solving for Uz, Initial residual = 0.01646090410023293, Final residual = 2.10131862191568e-15, No Iterations 4
DILUPBiCG:  Solving for e, Initial residual = 0.01658870371140323, Final residual = 2.301408083915086e-15, No Iterations 4
DILUPBiCG:  Solving for p, Initial residual = 0.02238728036993136, Final residual = 6.414743878447705e-05, No Iterations 1
pEqnloop: 0
diagonal:  Solving for rho, Initial residual = 0, Final residual = 0, No Iterations 0
time step continuity errors : sum local = 1.152230633847853e-09, global = -1.856234310865221e-10, cumulative = -2.764927520498942e-09
DILUPBiCG:  Solving for p, Initial residual = 0.0002331942908419451, Final residual = 5.303316424583857e-14, No Iterations 4
pEqnloop: 1
diagonal:  Solving for rho, Initial residual = 0, Final residual = 0, No Iterations 0
time step continuity errors : sum local = 1.790593783138086e-16, global = 3.986302620558388e-17, cumulative = -2.764927480635916e-09
DILUPBiCG:  Solving for k, Initial residual = 0.02276590053390272, Final residual = 8.841780568347391e-15, No Iterations 4
ExecutionTime = 763.22 s  ClockTime = 1557 s

APIO_IO_STEP = 1.009976863861084
Courant Number mean: 9.12413880819331e-07 max: 0.1959622633855179
deltaT = 3.668477697938785e-06
Time = 8.3221e-05

PIMPLE: iteration 1
diagonal:  Solving for rho, Initial residual = 0, Final residual = 0, No Iterations 0
DILUPBiCG:  Solving for Ux, Initial residual = 0.04364667747631106, Final residual = 8.035650329501604e-15, No Iterations 4
DILUPBiCG:  Solving for Uy, Initial residual = 0.04364487431054366, Final residual = 3.792907432420928e-14, No Iterations 4
DILUPBiCG:  Solving for Uz, Initial residual = 0.01638142209819907, Final residual = 2.637272008466482e-15, No Iterations 4
DILUPBiCG:  Solving for e, Initial residual = 0.01738553598606701, Final residual = 6.760826142306619e-15, No Iterations 4
DILUPBiCG:  Solving for p, Initial residual = 0.02397068013186851, Final residual = 7.289121552167102e-05, No Iterations 1
pEqnloop: 0
diagonal:  Solving for rho, Initial residual = 0, Final residual = 0, No Iterations 0
time step continuity errors : sum local = 1.37104769138386e-09, global = -2.254857618968254e-10, cumulative = -2.990413242532741e-09
DILUPBiCG:  Solving for p, Initial residual = 0.000284034897523506, Final residual = 1.120119628633453e-13, No Iterations 4
pEqnloop: 1
diagonal:  Solving for rho, Initial residual = 0, Final residual = 0, No Iterations 0
time step continuity errors : sum local = 1.737428379025008e-16, global = -1.458058963158664e-17, cumulative = -2.990413257113331e-09
DILUPBiCG:  Solving for k, Initial residual = 0.02220827678352679, Final residual = 1.133045620931864e-14, No Iterations 4
ExecutionTime = 777.74 s  ClockTime = 1586 s

APIO_IO_STEP = 0.4630122184753418
Courant Number mean: 9.929089521672057e-07 max: 0.1955382163708631
deltaT = 3.752184883369328e-06
Time = 8.69732e-05

PIMPLE: iteration 1
diagonal:  Solving for rho, Initial residual = 0, Final residual = 0, No Iterations 0
DILUPBiCG:  Solving for Ux, Initial residual = 0.04251522230186124, Final residual = 1.837058882196683e-14, No Iterations 4
DILUPBiCG:  Solving for Uy, Initial residual = 0.04251323710681067, Final residual = 7.209585638555103e-14, No Iterations 4
DILUPBiCG:  Solving for Uz, Initial residual = 0.0161732667273024, Final residual = 2.556086987647667e-14, No Iterations 4
DILUPBiCG:  Solving for e, Initial residual = 0.01820856573186919, Final residual = 2.186869358481032e-14, No Iterations 4
DILUPBiCG:  Solving for p, Initial residual = 0.02419342440871665, Final residual = 7.793492883772267e-05, No Iterations 1
pEqnloop: 0
diagonal:  Solving for rho, Initial residual = 0, Final residual = 0, No Iterations 0
time step continuity errors : sum local = 1.53349179260995e-09, global = -2.613616911555445e-10, cumulative = -3.251774948268876e-09
DILUPBiCG:  Solving for p, Initial residual = 0.0004699751399229801, Final residual = 3.189078098077458e-13, No Iterations 4
pEqnloop: 1
diagonal:  Solving for rho, Initial residual = 0, Final residual = 0, No Iterations 0
time step continuity errors : sum local = 1.761537634134027e-16, global = 5.411956484654794e-17, cumulative = -3.251774894149311e-09
DILUPBiCG:  Solving for k, Initial residual = 0.02173936886411971, Final residual = 1.529261056186228e-14, No Iterations 4
ExecutionTime = 792.28 s  ClockTime = 1616 s

APIO_IO_STEP = 0.6587612628936768
Courant Number mean: 1.086391999131704e-06 max: 0.2049769605267763
deltaT = 3.661079639122816e-06
Time = 9.06343e-05

PIMPLE: iteration 1
diagonal:  Solving for rho, Initial residual = 0, Final residual = 0, No Iterations 0
DILUPBiCG:  Solving for Ux, Initial residual = 0.03976473029696659, Final residual = 2.115662847770234e-14, No Iterations 4
DILUPBiCG:  Solving for Uy, Initial residual = 0.03976326673974106, Final residual = 1.019042259124475e-13, No Iterations 4
DILUPBiCG:  Solving for Uz, Initial residual = 0.0152426798152053, Final residual = 2.007029043904084e-14, No Iterations 4
DILUPBiCG:  Solving for e, Initial residual = 0.01741614259520604, Final residual = 4.216986076252028e-14, No Iterations 4
DILUPBiCG:  Solving for p, Initial residual = 0.02242496914405171, Final residual = 6.967198857001246e-05, No Iterations 1
pEqnloop: 0
diagonal:  Solving for rho, Initial residual = 0, Final residual = 0, No Iterations 0
time step continuity errors : sum local = 1.432244988460681e-09, global = -2.552248753996974e-10, cumulative = -3.506999769549008e-09
DILUPBiCG:  Solving for p, Initial residual = 0.0002470193824462811, Final residual = 3.385564821258912e-15, No Iterations 5
pEqnloop: 1
diagonal:  Solving for rho, Initial residual = 0, Final residual = 0, No Iterations 0
time step continuity errors : sum local = 1.695406008937779e-16, global = -2.116529428561418e-17, cumulative = -3.506999790714302e-09
DILUPBiCG:  Solving for k, Initial residual = 0.02039045450592451, Final residual = 1.566684877856591e-14, No Iterations 4
ExecutionTime = 806.35 s  ClockTime = 1643 s

APIO_IO_STEP = 0.5558412075042725
Courant Number mean: 1.132748275785106e-06 max: 0.2070315588321373
deltaT = 3.536735809530592e-06
Time = 9.4171e-05

PIMPLE: iteration 1
diagonal:  Solving for rho, Initial residual = 0, Final residual = 0, No Iterations 0
DILUPBiCG:  Solving for Ux, Initial residual = 0.03701083389576976, Final residual = 3.954712785685172e-14, No Iterations 4
DILUPBiCG:  Solving for Uy, Initial residual = 0.03700983255459424, Final residual = 1.242370017761199e-13, No Iterations 4
DILUPBiCG:  Solving for Uz, Initial residual = 0.01438662814258066, Final residual = 2.743906669739047e-14, No Iterations 4
DILUPBiCG:  Solving for e, Initial residual = 0.01620559650457992, Final residual = 5.119290723450755e-14, No Iterations 4
DILUPBiCG:  Solving for p, Initial residual = 0.02151176291020602, Final residual = 6.400803455434306e-05, No Iterations 1
pEqnloop: 0
diagonal:  Solving for rho, Initial residual = 0, Final residual = 0, No Iterations 0
time step continuity errors : sum local = 1.370978528094212e-09, global = -2.828641916492085e-10, cumulative = -3.789863982363511e-09
DILUPBiCG:  Solving for p, Initial residual = 0.0002858770382676037, Final residual = 6.819150533477103e-16, No Iterations 5
pEqnloop: 1
diagonal:  Solving for rho, Initial residual = 0, Final residual = 0, No Iterations 0
time step continuity errors : sum local = 1.821421769717578e-16, global = 4.237166506093138e-17, cumulative = -3.789863939991846e-09
DILUPBiCG:  Solving for k, Initial residual = 0.01902094606563227, Final residual = 1.258398800409555e-14, No Iterations 4
ExecutionTime = 822.49 s  ClockTime = 1675 s

APIO_IO_STEP = 0.06482791900634766
Courant Number mean: 1.161484049155738e-06 max: 0.2053165581192676
deltaT = 3.445154002120082e-06
Time = 9.76162e-05

PIMPLE: iteration 1
diagonal:  Solving for rho, Initial residual = 0, Final residual = 0, No Iterations 0
DILUPBiCG:  Solving for Ux, Initial residual = 0.03476665943994054, Final residual = 5.935217593190844e-14, No Iterations 4
DILUPBiCG:  Solving for Uy, Initial residual = 0.03476603350059563, Final residual = 1.587071028738008e-13, No Iterations 4
DILUPBiCG:  Solving for Uz, Initial residual = 0.01381023513763479, Final residual = 4.743803001585754e-14, No Iterations 4
DILUPBiCG:  Solving for e, Initial residual = 0.01571552818709931, Final residual = 6.026911699961004e-14, No Iterations 4
DILUPBiCG:  Solving for p, Initial residual = 0.02116507332036471, Final residual = 6.087327821537875e-05, No Iterations 1
pEqnloop: 0
diagonal:  Solving for rho, Initial residual = 0, Final residual = 0, No Iterations 0
time step continuity errors : sum local = 1.354807771629371e-09, global = -2.914208702551876e-10, cumulative = -4.081284810247033e-09
DILUPBiCG:  Solving for p, Initial residual = 0.0002330894187549449, Final residual = 1.112436894970261e-13, No Iterations 4
pEqnloop: 1
diagonal:  Solving for rho, Initial residual = 0, Final residual = 0, No Iterations 0
time step continuity errors : sum local = 2.002144592512115e-16, global = -4.576792219565254e-17, cumulative = -4.081284856014956e-09
DILUPBiCG:  Solving for k, Initial residual = 0.01789030024581611, Final residual = 1.143009290791875e-14, No Iterations 4
ExecutionTime = 835.33 s  ClockTime = 1705 s

APIO_IO_STEP = 4.459938526153564
Courant Number mean: 1.193763662655844e-06 max: 0.2029222497095484
deltaT = 3.395540909931037e-06
Time = 0.000101012

PIMPLE: iteration 1
diagonal:  Solving for rho, Initial residual = 0, Final residual = 0, No Iterations 0
DILUPBiCG:  Solving for Ux, Initial residual = 0.0330412528509595, Final residual = 8.188431957169184e-14, No Iterations 4
DILUPBiCG:  Solving for Uy, Initial residual = 0.03304084314357874, Final residual = 3.19837256504853e-13, No Iterations 4
DILUPBiCG:  Solving for Uz, Initial residual = 0.01350253214995876, Final residual = 8.125730912439022e-14, No Iterations 4
DILUPBiCG:  Solving for e, Initial residual = 0.01583901166773541, Final residual = 8.0216178213222e-14, No Iterations 4
DILUPBiCG:  Solving for p, Initial residual = 0.02104069096151885, Final residual = 5.849919685432757e-05, No Iterations 1
pEqnloop: 0
diagonal:  Solving for rho, Initial residual = 0, Final residual = 0, No Iterations 0
time step continuity errors : sum local = 1.350004800758172e-09, global = -2.904823503971751e-10, cumulative = -4.371767206412131e-09
DILUPBiCG:  Solving for p, Initial residual = 0.0002347480663468578, Final residual = 1.290051554588555e-15, No Iterations 5
pEqnloop: 1
diagonal:  Solving for rho, Initial residual = 0, Final residual = 0, No Iterations 0
time step continuity errors : sum local = 1.932386996079389e-16, global = -4.105280674995266e-17, cumulative = -4.371767247464938e-09
DILUPBiCG:  Solving for k, Initial residual = 0.0170180790650063, Final residual = 1.151809543121377e-14, No Iterations 4
ExecutionTime = 850.84 s  ClockTime = 1736 s

APIO_IO_STEP = 0.2014939785003662
Terminating ...
End

APIO_IO_TIME = 72.49488210843668
Finalising parallel run
