/*---------------------------------------------------------------------------*\
| =========                 |                                                 |
| \\      /  F ield         | OpenFOAM: The Open Source CFD Toolbox           |
|  \\    /   O peration     | Version:  v1912                                 |
|   \\  /    A nd           | Website:  www.openfoam.com                      |
|    \\/     M anipulation  |                                                 |
\*---------------------------------------------------------------------------*/
Build  : _f3950763fe-20191219 OPENFOAM=1912
Arch   : "LSB;label=32;scalar=64"
Exec   : rhoPimpleFoam_METRICS -parallel
Date   : Oct 27 2020
Time   : 13:14:03
Host   : r37c1t6n2
PID    : 62613
I/O    : uncollated
Case   : /lustre/cray/ws9/2/ws/hpcmcast-ashee2/HAWK/apio_32M/1024
nProcs : 1024
Hosts  :
(
    (r37c1t6n2 128)
    (r42c3t4n1 128)
    (r42c3t4n2 128)
    (r43c2t6n4 128)
    (r43c2t7n1 128)
    (r43c2t7n2 128)
    (r43c2t7n3 128)
    (r44c1t8n4 128)
)
Pstream initialized with:
    floatTransfer      : 0
    nProcsSimpleSum    : 0
    commsType          : nonBlocking
    polling iterations : 0
trapFpe: Floating point exception trapping enabled (FOAM_SIGFPE).
fileModificationChecking : Monitoring run-time modified files using timeStampMaster (fileModificationSkew 10)
allowSystemOperations : Allowing user-supplied system call operations

// * * * * * * * * * * * * * * * * * * * * * * * * * * * * * * * * * * * * * //
Create time

Create mesh for time = 0


PIMPLE: Operating solver in PISO mode

Reading thermophysical properties

Selecting thermodynamics package 
{
    type            hePsiThermo;
    mixture         pureMixture;
    transport       const;
    thermo          eConst;
    equationOfState perfectGas;
    specie          specie;
    energy          sensibleInternalEnergy;
}

Reading field U

Reading/calculating face flux field phi

--> FOAM Warning : 
    From function Foam::pressureControl::pressureControl(const volScalarField&, const volScalarField&, const Foam::dictionary&, bool)
    in file cfdTools/general/pressureControl/pressureControl.C at line 123
    Reading "/lustre/cray/ws9/2/ws/hpcmcast-ashee2/HAWK/apio_32M/1024/system/fvSolution.PIMPLE"
    'rhoMax' specified rather than 'pMax' or 'pMaxFactor'
    This is supported for backward-compatibility but 'pMax' or 'pMaxFactor' are more reliable.
--> FOAM Warning : 
    From function Foam::pressureControl::pressureControl(const volScalarField&, const volScalarField&, const Foam::dictionary&, bool)
    in file cfdTools/general/pressureControl/pressureControl.C at line 178
    Reading "/lustre/cray/ws9/2/ws/hpcmcast-ashee2/HAWK/apio_32M/1024/system/fvSolution.PIMPLE"
    'rhoMin' specified rather than 'pMin' or 'pMinFactor'
    This is supported for backward-compatibility but 'pMin' or 'pMinFactor' are more reliable.
pressureControl
    pMax 1726187.557059955
    pMin 4747.015781914877

Creating turbulence model

Selecting turbulence model type LES
Selecting LES turbulence model kEqn
Selecting LES delta type cubeRootVol
LES
{
    LESModel        kEqn;
    turbulence      on;
    printCoeffs     on;
    delta           cubeRootVol;
    cubeRootVolCoeffs
    {
        deltaCoeff      1;
    }
    PrandtlCoeffs
    {
        delta           cubeRootVol;
        cubeRootVolCoeffs
        {
            deltaCoeff      1;
        }
        smoothCoeffs
        {
            delta           cubeRootVol;
            cubeRootVolCoeffs
            {
                deltaCoeff      1;
            }
            maxDeltaRatio   1.1;
        }
        Cdelta          0.158;
    }
    vanDriestCoeffs
    {
        delta           cubeRootVol;
        cubeRootVolCoeffs
        {
            deltaCoeff      1;
        }
        smoothCoeffs
        {
            delta           cubeRootVol;
            cubeRootVolCoeffs
            {
                deltaCoeff      1;
            }
            maxDeltaRatio   1.1;
        }
        Aplus           26;
        Cdelta          0.158;
    }
    smoothCoeffs
    {
        delta           cubeRootVol;
        cubeRootVolCoeffs
        {
            deltaCoeff      1;
        }
        maxDeltaRatio   1.1;
    }
    Ce              1.048;
    Ck              0.094;
}

Creating field dpdt

Creating field kinetic energy K

No MRF models present

procNo = 32
procNo = 33
procNo = 34
procNo = 35
procNo = 36
procNo = 37
procNo = 38
procNo = 39
procNo = 40
procNo = 41
procNo = 42
procNo = 43
procNo = 44
procNo = 45
procNo = 46
procNo = 47
procNo = 48
procNo = 49
procNo = 50
procNo = 51
procNo = 52
procNo = 53
procNo = 54
procNo = 55
procNo = 56
procNo = 57
procNo = 58
procNo = 59
procNo = 60
procNo = 61
procNo = 62
procNo = 63
procNo = 64
procNo = 65
procNo = 66
procNo = 67
procNo = 68
procNo = 69
procNo = 70
procNo = 71
procNo = 72
procNo = 73
procNo = 74
procNo = 75
procNo = 76
procNo = 77
procNo = 78
procNo = 79
procNo = 80
procNo = 81
procNo = 82
procNo = 83
procNo = 84
procNo = 85
procNo = 86
procNo = 87
procNo = 88
procNo = 89
procNo = 90
procNo = 91
procNo = 92
procNo = 93
procNo = 94
procNo = 95
procNo = 96
procNo = 97
procNo = 98
procNo = 99
procNo = 100
procNo = 101
procNo = 102
procNo = 103
procNo = 104
procNo = 105
procNo = 106
procNo = 107
procNo = 108
procNo = 109
procNo = 110
procNo = 111
procNo = 112
procNo = 113
procNo = 114
procNo = 115
procNo = 116
procNo = 117
procNo = 118
procNo = 119
procNo = 120
procNo = 121
procNo = 122
procNo = 123
procNo = 124
procNo = 125
procNo = 126
procNo = 127
No finite volume options present
procNo = 0
masterNo = 0
procNo = 1
procNo = 2
procNo = 3
procNo = 4
procNo = 5
procNo = 6
procNo = 7
procNo = 8
procNo = 9
procNo = 10
procNo = 11
procNo = 12
procNo = 13
procNo = 14
procNo = 15
procNo = 16
procNo = 17
procNo = 18
procNo = 19
procNo = 20
procNo = 21
procNo = 22
procNo = 23
procNo = 24
procNo = 25
procNo = 26
procNo = 27
procNo = 28
procNo = 29
procNo = 30
procNo = 31
procNo = 640
procNo = 256
procNo = 896
procNo = 641
procNo = 384
procNo = 512
procNo = 768
procNo = 128
procNo = 257
procNo = 897
procNo = 642
procNo = 385
procNo = 513
procNo = 769
procNo = 129
procNo = 258
procNo = 898
procNo = 643
procNo = 386
procNo = 514
procNo = 770
procNo = 130
procNo = 259
procNo = 899
procNo = 644
procNo = 387
procNo = 515
procNo = 771
procNo = 131
procNo = 260
procNo = 900
procNo = 645
procNo = 388
procNo = 516
procNo = 772
procNo = 132
procNo = 261
procNo = 901
procNo = 646
procNo = 389
procNo = 517
procNo = 773
procNo = 133
procNo = 262
procNo = 902
procNo = 647
procNo = 390
procNo = 518
procNo = 774
procNo = 134
procNo = 263
procNo = 903
procNo = 648
procNo = 391
procNo = 519
procNo = 775
procNo = 135
procNo = 264
procNo = 904
procNo = 649
procNo = 392
procNo = 520
procNo = 776
procNo = 136
procNo = 265
procNo = 905
procNo = 650
procNo = 393
procNo = 521
procNo = 777
procNo = 137
procNo = 266
procNo = 651
procNo = 394
procNo = 267
procNo = 906
procNo = 652
procNo = 395
procNo = 522
procNo = 778
procNo = 268
procNo = 907
procNo = 653
procNo = 396
procNo = 523
procNo = 779
procNo = 138
procNo = 269
procNo = 908
procNo = 654
procNo = 397
procNo = 524
procNo = 780
procNo = 139
procNo = 270
procNo = 909
procNo = 655
procNo = 398
procNo = 525
procNo = 781
procNo = 140
procNo = 271
procNo = 910
procNo = 656
procNo = 399
procNo = 526
procNo = 782
procNo = 141
procNo = 272
procNo = 911
procNo = 657
procNo = 400
procNo = 527
procNo = 783
procNo = 142
procNo = 273
procNo = 912
procNo = 658
procNo = 401
procNo = 528
procNo = 784
procNo = 143
procNo = 274
procNo = 913
procNo = 659
procNo = 402
procNo = 529
procNo = 785
procNo = 144
procNo = 275
procNo = 914
procNo = 660
procNo = 403
procNo = 530
procNo = 786
procNo = 145
procNo = 276
procNo = 915
procNo = 661
procNo = 404
procNo = 531
procNo = 787
procNo = 146
procNo = 277
procNo = 916
procNo = 662
procNo = 405
procNo = 532
procNo = 788
procNo = 147
procNo = 278
procNo = 917
procNo = 663
procNo = 406
procNo = 533
procNo = 789
procNo = 148
Courant Number mean: 4.134521852226337e-11 max: 2.085039370078742e-05
procNo = 279
procNo = 918
procNo = 664
procNo = 407
procNo = 534
procNo = 790
procNo = 149
procNo = 280
procNo = 919
procNo = 665
procNo = 408
procNo = 535
procNo = 791
procNo = 150
procNo = 281
procNo = 920
procNo = 666
procNo = 409
procNo = 536
procNo = 792
procNo = 151
procNo = 282
procNo = 921
procNo = 667
procNo = 410
procNo = 537
procNo = 793
procNo = 152
procNo = 283
procNo = 922
procNo = 668
procNo = 411
procNo = 538
procNo = 794
procNo = 153
procNo = 284
procNo = 923
procNo = 669
procNo = 412
procNo = 539
procNo = 795
procNo = 154
procNo = 285
procNo = 924
procNo = 670
procNo = 413
procNo = 540
procNo = 796
procNo = 155
procNo = 286
procNo = 925
procNo = 671
procNo = 414
procNo = 541
procNo = 797
procNo = 156
procNo = 287
procNo = 926
procNo = 672
procNo = 415
procNo = 542
procNo = 798
procNo = 157
procNo = 288
procNo = 927
procNo = 673
procNo = 416
procNo = 543
procNo = 799
procNo = 158
procNo = 289
procNo = 928
procNo = 674
procNo = 417
procNo = 544
procNo = 800
procNo = 159
procNo = 290
procNo = 929
procNo = 675
procNo = 418
procNo = 545
procNo = 801
procNo = 160
procNo = 291
procNo = 930
procNo = 676
procNo = 419
procNo = 546
procNo = 802
procNo = 161
procNo = 292
procNo = 931
procNo = 677
procNo = 420
procNo = 547
procNo = 803
procNo = 162
procNo = 293
procNo = 932
procNo = 678
procNo = 421
procNo = 548
procNo = 804
procNo = 163
procNo = 294
procNo = 933
procNo = 679
procNo = 422
procNo = 549
procNo = 805
procNo = 164
procNo = 295
procNo = 934
procNo = 680
procNo = 423
procNo = 550
procNo = 806
procNo = 165
procNo = 296
procNo = 935
procNo = 681
procNo = 424
procNo = 551
procNo = 807
procNo = 166
procNo = 297
procNo = 936
procNo = 682
procNo = 425
procNo = 552
procNo = 808
procNo = 167

Starting time loop

procNo = 298
procNo = 937
procNo = 683
procNo = 426
procNo = 553
procNo = 809
procNo = 168
procNo = 299
procNo = 938
procNo = 684
procNo = 427
procNo = 554
procNo = 810
procNo = 169
procNo = 300
procNo = 939
procNo = 685
procNo = 428
procNo = 555
procNo = 811
procNo = 170
procNo = 301
procNo = 940
procNo = 686
procNo = 429
procNo = 556
procNo = 812
procNo = 171
procNo = 302
procNo = 941
procNo = 687
procNo = 430
procNo = 557
procNo = 813
procNo = 172
procNo = 303
procNo = 942
procNo = 688
procNo = 431
procNo = 558
procNo = 814
procNo = 173
procNo = 304
procNo = 943
procNo = 689
procNo = 432
procNo = 559
procNo = 815
procNo = 174
procNo = 305
procNo = 944
procNo = 690
procNo = 433
procNo = 560
procNo = 816
procNo = 175
Courant Number mean: 4.134521852226337e-11 max: 2.085039370078742e-05
deltaT = 1.2e-09
procNo = 306
procNo = 945
procNo = 691
procNo = 434
procNo = 561
procNo = 817
procNo = 176
Time = 1.2e-09

PIMPLE: iteration 1
procNo = 307
procNo = 946
procNo = 692
procNo = 435
procNo = 562
procNo = 818
procNo = 177
procNo = 308
procNo = 947
procNo = 693
procNo = 436
procNo = 563
procNo = 819
procNo = 178
procNo = 309
procNo = 948
procNo = 694
procNo = 437
procNo = 564
procNo = 820
procNo = 179
procNo = 310
procNo = 949
procNo = 695
procNo = 438
procNo = 565
procNo = 821
procNo = 180
procNo = 311
procNo = 950
procNo = 696
procNo = 439
procNo = 566
procNo = 822
procNo = 181
procNo = 312
procNo = 951
procNo = 697
procNo = 440
procNo = 567
procNo = 823
procNo = 182
procNo = 313
procNo = 952
procNo = 698
procNo = 441
procNo = 568
procNo = 824
procNo = 183
diagonal:  Solving for rho, Initial residual = 0, Final residual = 0, No Iterations 0
procNo = 314
procNo = 953
procNo = 699
procNo = 442
procNo = 569
procNo = 825
procNo = 184
procNo = 315
procNo = 954
procNo = 700
procNo = 443
procNo = 570
procNo = 826
procNo = 185
procNo = 316
procNo = 955
procNo = 701
procNo = 444
procNo = 571
procNo = 827
procNo = 186
procNo = 317
procNo = 956
procNo = 702
procNo = 445
procNo = 572
procNo = 828
procNo = 187
procNo = 318
procNo = 957
procNo = 703
procNo = 446
procNo = 573
procNo = 829
procNo = 188
procNo = 319
procNo = 958
procNo = 704
procNo = 447
procNo = 574
procNo = 830
procNo = 189
procNo = 320
procNo = 959
procNo = 705
procNo = 448
procNo = 575
procNo = 831
procNo = 190
procNo = 321
procNo = 960
procNo = 706
procNo = 449
procNo = 576
procNo = 832
procNo = 191
procNo = 322
procNo = 961
procNo = 707
procNo = 450
procNo = 577
procNo = 833
procNo = 192
procNo = 323
procNo = 962
procNo = 708
procNo = 451
procNo = 578
procNo = 834
procNo = 193
procNo = 324
procNo = 963
procNo = 709
procNo = 452
procNo = 579
procNo = 835
procNo = 194
procNo = 325
procNo = 964
procNo = 710
procNo = 453
procNo = 580
procNo = 836
procNo = 195
procNo = 326
procNo = 965
procNo = 711
procNo = 454
procNo = 581
procNo = 837
procNo = 196
procNo = 327
procNo = 966
procNo = 712
procNo = 455
procNo = 582
procNo = 838
procNo = 197
procNo = 328
procNo = 967
procNo = 713
procNo = 456
procNo = 583
procNo = 839
procNo = 198
procNo = 329
procNo = 968
procNo = 714
procNo = 457
procNo = 584
procNo = 840
procNo = 199
procNo = 330
procNo = 969
procNo = 715
procNo = 458
procNo = 585
procNo = 841
procNo = 200
procNo = 331
procNo = 970
procNo = 716
procNo = 459
procNo = 586
procNo = 842
procNo = 201
procNo = 332
procNo = 971
procNo = 717
procNo = 460
procNo = 587
procNo = 843
procNo = 202
procNo = 333
procNo = 972
procNo = 718
procNo = 461
procNo = 588
procNo = 844
procNo = 203
procNo = 334
procNo = 973
procNo = 719
procNo = 462
procNo = 589
procNo = 845
procNo = 204
procNo = 335
procNo = 974
procNo = 720
procNo = 463
procNo = 590
procNo = 846
procNo = 205
procNo = 336
procNo = 975
procNo = 721
procNo = 464
procNo = 591
procNo = 847
procNo = 206
procNo = 337
procNo = 976
procNo = 722
procNo = 465
procNo = 592
procNo = 848
procNo = 207
procNo = 338
procNo = 977
procNo = 723
procNo = 466
procNo = 593
procNo = 849
procNo = 208
procNo = 339
procNo = 978
procNo = 724
procNo = 467
procNo = 594
procNo = 850
procNo = 209
procNo = 340
procNo = 979
procNo = 725
procNo = 468
procNo = 595
procNo = 851
procNo = 210
procNo = 341
procNo = 980
procNo = 726
procNo = 469
procNo = 596
procNo = 852
procNo = 211
procNo = 342
procNo = 981
procNo = 727
procNo = 470
procNo = 597
procNo = 853
procNo = 212
procNo = 343
procNo = 982
procNo = 728
procNo = 471
procNo = 598
procNo = 854
procNo = 213
procNo = 344
procNo = 983
procNo = 729
procNo = 472
procNo = 599
procNo = 855
procNo = 214
procNo = 345
procNo = 984
procNo = 730
procNo = 473
procNo = 600
procNo = 856
procNo = 215
procNo = 346
procNo = 985
procNo = 731
procNo = 474
procNo = 601
procNo = 857
procNo = 216
procNo = 347
procNo = 986
procNo = 732
procNo = 475
procNo = 602
procNo = 858
procNo = 217
procNo = 348
procNo = 987
procNo = 733
procNo = 476
procNo = 603
procNo = 859
procNo = 218
procNo = 349
procNo = 988
procNo = 734
procNo = 477
procNo = 604
procNo = 860
procNo = 219
procNo = 350
procNo = 989
procNo = 735
procNo = 478
procNo = 605
procNo = 861
procNo = 220
procNo = 351
procNo = 990
procNo = 736
procNo = 479
procNo = 606
procNo = 862
procNo = 221
procNo = 352
procNo = 991
procNo = 737
procNo = 480
procNo = 607
procNo = 863
procNo = 222
procNo = 353
procNo = 992
procNo = 738
procNo = 481
procNo = 608
procNo = 864
procNo = 223
procNo = 354
procNo = 993
procNo = 739
procNo = 482
procNo = 609
procNo = 865
procNo = 224
procNo = 355
procNo = 994
procNo = 740
procNo = 483
procNo = 610
procNo = 866
procNo = 225
procNo = 356
procNo = 995
procNo = 741
procNo = 484
procNo = 611
procNo = 867
procNo = 226
procNo = 357
procNo = 996
procNo = 742
procNo = 485
procNo = 612
procNo = 868
procNo = 227
procNo = 358
procNo = 997
procNo = 743
procNo = 486
procNo = 613
procNo = 869
procNo = 228
procNo = 359
procNo = 998
procNo = 744
procNo = 487
procNo = 614
procNo = 870
procNo = 229
procNo = 360
procNo = 999
procNo = 745
procNo = 488
procNo = 615
procNo = 871
procNo = 230
procNo = 361
procNo = 1000
procNo = 746
procNo = 489
procNo = 616
procNo = 872
procNo = 231
procNo = 362
procNo = 1001
procNo = 747
procNo = 490
procNo = 617
procNo = 873
procNo = 232
procNo = 363
procNo = 1002
procNo = 748
procNo = 491
procNo = 618
procNo = 874
procNo = 233
procNo = 364
procNo = 1003
procNo = 749
procNo = 492
procNo = 619
procNo = 875
procNo = 234
procNo = 365
procNo = 1004
procNo = 750
procNo = 493
procNo = 620
procNo = 876
procNo = 235
procNo = 366
procNo = 1005
procNo = 751
procNo = 494
procNo = 621
procNo = 877
procNo = 236
procNo = 367
procNo = 1006
procNo = 752
procNo = 495
procNo = 622
procNo = 878
procNo = 237
procNo = 368
procNo = 1007
procNo = 753
procNo = 496
procNo = 623
procNo = 879
procNo = 238
procNo = 369
procNo = 1008
procNo = 754
procNo = 497
procNo = 624
procNo = 880
procNo = 239
procNo = 370
procNo = 1009
procNo = 755
procNo = 498
procNo = 625
procNo = 881
procNo = 240
procNo = 371
procNo = 1010
procNo = 756
procNo = 499
procNo = 626
procNo = 882
procNo = 241
procNo = 372
procNo = 1011
procNo = 757
procNo = 500
procNo = 627
procNo = 883
procNo = 242
procNo = 373
procNo = 1012
procNo = 758
procNo = 501
procNo = 628
procNo = 884
procNo = 243
procNo = 374
procNo = 1013
procNo = 759
procNo = 502
procNo = 629
procNo = 885
procNo = 244
procNo = 375
procNo = 1014
procNo = 760
procNo = 503
procNo = 630
procNo = 886
procNo = 245
procNo = 376
procNo = 1015
procNo = 761
procNo = 504
procNo = 631
procNo = 887
procNo = 246
procNo = 377
procNo = 1016
procNo = 762
procNo = 505
procNo = 632
procNo = 888
procNo = 247
procNo = 378
procNo = 1017
procNo = 763
procNo = 506
procNo = 633
procNo = 889
procNo = 248
procNo = 379
procNo = 1018
procNo = 764
procNo = 507
procNo = 634
procNo = 890
procNo = 249
procNo = 380
procNo = 1019
procNo = 765
procNo = 508
procNo = 635
procNo = 891
procNo = 250
procNo = 381
procNo = 1020
procNo = 766
procNo = 509
procNo = 636
procNo = 892
procNo = 251
procNo = 382
procNo = 1021
procNo = 767
procNo = 510
procNo = 637
procNo = 893
procNo = 252
procNo = 383
procNo = 1022
procNo = 511
procNo = 638
procNo = 894
procNo = 253
procNo = 1023
procNo = 639
procNo = 895
procNo = 254
procNo = 255
DILUPBiCG:  Solving for Ux, Initial residual = 1, Final residual = 5.16966827087888e-21, No Iterations 2
DILUPBiCG:  Solving for Uy, Initial residual = 1, Final residual = 1.717257213269727e-20, No Iterations 2
DILUPBiCG:  Solving for Uz, Initial residual = 1, Final residual = 2.000633836174513e-20, No Iterations 2
DILUPBiCG:  Solving for e, Initial residual = 0.9999990155290933, Final residual = 8.046787727705353e-20, No Iterations 2
DILUPBiCG:  Solving for p, Initial residual = 0.9999996270401861, Final residual = 2.465850529067728e-10, No Iterations 1
diagonal:  Solving for rho, Initial residual = 0, Final residual = 0, No Iterations 0
time step continuity errors : sum local = 2.466525785393953e-16, global = -2.461837154215236e-16, cumulative = -2.461837154215236e-16
DILUPBiCG:  Solving for p, Initial residual = 1.180612717273935e-07, Final residual = 1.211748917308887e-16, No Iterations 1
diagonal:  Solving for rho, Initial residual = 0, Final residual = 0, No Iterations 0
time step continuity errors : sum local = 2.693592885880642e-16, global = -2.684166515022461e-16, cumulative = -5.146003669237697e-16
DILUPBiCG:  Solving for k, Initial residual = 0.9999999999999825, Final residual = 2.001467612633498e-20, No Iterations 2
ExecutionTime = 4.31 s  ClockTime = 8 s

ORIG_COMP_STEP = 0.440397374
ORIG_IO_STEP = 2.599952168
Courant Number mean: 4.961451094357118e-11 max: 2.501990921293873e-05
deltaT = 1.44e-09
Time = 2.64e-09

PIMPLE: iteration 1
diagonal:  Solving for rho, Initial residual = 0, Final residual = 0, No Iterations 0
DILUPBiCG:  Solving for Ux, Initial residual = 0.3749195240689017, Final residual = 1.167910227734755e-21, No Iterations 2
DILUPBiCG:  Solving for Uy, Initial residual = 0.3749195240699115, Final residual = 3.899635359512587e-21, No Iterations 2
DILUPBiCG:  Solving for Uz, Initial residual = 0.2307601757170685, Final residual = 2.802827101433941e-21, No Iterations 2
DILUPBiCG:  Solving for e, Initial residual = 0.230751177885106, Final residual = 1.125243142098962e-20, No Iterations 2
DILUPBiCG:  Solving for p, Initial residual = 0.2307584043441423, Final residual = 3.431172567107945e-11, No Iterations 1
diagonal:  Solving for rho, Initial residual = 0, Final residual = 0, No Iterations 0
time step continuity errors : sum local = 5.490543928650042e-16, global = -5.489825819380256e-16, cumulative = -1.063582948861795e-15
DILUPBiCG:  Solving for p, Initial residual = 7.958328991425876e-08, Final residual = 3.745684863150003e-15, No Iterations 1
diagonal:  Solving for rho, Initial residual = 0, Final residual = 0, No Iterations 0
time step continuity errors : sum local = 4.812202523517024e-16, global = -4.812125754858348e-16, cumulative = -1.54479552434763e-15
DILUPBiCG:  Solving for k, Initial residual = 0.7612500415385197, Final residual = 9.261574610125398e-21, No Iterations 2
ExecutionTime = 4.9 s  ClockTime = 11 s

ORIG_COMP_STEP = 0.580459346
ORIG_IO_STEP = 2.646253785999999
Courant Number mean: 5.953777282882727e-11 max: 3.002308059560315e-05
deltaT = 1.728e-09
Time = 4.368e-09

PIMPLE: iteration 1
diagonal:  Solving for rho, Initial residual = 0, Final residual = 0, No Iterations 0
DILUPBiCG:  Solving for Ux, Initial residual = 0.3231077205289309, Final residual = 1.447873412665134e-21, No Iterations 2
DILUPBiCG:  Solving for Uy, Initial residual = 0.3231077205177703, Final residual = 4.904453054805189e-21, No Iterations 2
DILUPBiCG:  Solving for Uz, Initial residual = 0.1406145040469871, Final residual = 2.508982773006631e-21, No Iterations 2
DILUPBiCG:  Solving for e, Initial residual = 0.1406065743507335, Final residual = 1.001771397057166e-20, No Iterations 2
DILUPBiCG:  Solving for p, Initial residual = 0.1406128281389218, Final residual = 3.011336409299902e-11, No Iterations 1
diagonal:  Solving for rho, Initial residual = 0, Final residual = 0, No Iterations 0
time step continuity errors : sum local = 6.616574716957866e-16, global = -6.615435845116261e-16, cumulative = -2.206339108859256e-15
DILUPBiCG:  Solving for p, Initial residual = 5.027097036807371e-08, Final residual = 1.966619616104781e-14, No Iterations 1
diagonal:  Solving for rho, Initial residual = 0, Final residual = 0, No Iterations 0
time step continuity errors : sum local = 6.467842121424938e-16, global = -6.46783825369099e-16, cumulative = -2.853122934228355e-15
DILUPBiCG:  Solving for k, Initial residual = 0.5223926727984072, Final residual = 9.35587970187278e-21, No Iterations 2
ExecutionTime = 5.58 s  ClockTime = 14 s

ORIG_COMP_STEP = 0.6579695179999998
ORIG_IO_STEP = 3.733594317000001
Courant Number mean: 7.144584772634089e-11 max: 3.602653054273847e-05
deltaT = 2.0736e-09
Time = 6.4416e-09

PIMPLE: iteration 1
diagonal:  Solving for rho, Initial residual = 0, Final residual = 0, No Iterations 0
DILUPBiCG:  Solving for Ux, Initial residual = 0.2861774451842838, Final residual = 1.842712795155814e-21, No Iterations 2
DILUPBiCG:  Solving for Uy, Initial residual = 0.286177445181705, Final residual = 6.40714761219462e-21, No Iterations 2
DILUPBiCG:  Solving for Uz, Initial residual = 0.1060780689587331, Final residual = 2.824357447029053e-21, No Iterations 2
DILUPBiCG:  Solving for e, Initial residual = 0.1060690256970705, Final residual = 1.116947096463166e-20, No Iterations 2
DILUPBiCG:  Solving for p, Initial residual = 0.1060760633730698, Final residual = 3.272274646866605e-11, No Iterations 1
diagonal:  Solving for rho, Initial residual = 0, Final residual = 0, No Iterations 0
time step continuity errors : sum local = 3.532513519813871e-16, global = -3.50048305693481e-16, cumulative = -3.203171239921836e-15
DILUPBiCG:  Solving for p, Initial residual = 3.565437961385623e-08, Final residual = 2.395834693673766e-14, No Iterations 1
diagonal:  Solving for rho, Initial residual = 0, Final residual = 0, No Iterations 0
time step continuity errors : sum local = 3.804675878141034e-16, global = -3.797561122942826e-16, cumulative = -3.582927352216119e-15
DILUPBiCG:  Solving for k, Initial residual = 0.3755564138401445, Final residual = 1.007265483810737e-20, No Iterations 2
ExecutionTime = 7.15 s  ClockTime = 20 s

ORIG_COMP_STEP = 1.552618048000001
ORIG_IO_STEP = 3.650315808999999
Courant Number mean: 8.573577152514198e-11 max: 4.323015923841613e-05
deltaT = 2.48832e-09
Time = 8.92992e-09

PIMPLE: iteration 1
diagonal:  Solving for rho, Initial residual = 0, Final residual = 0, No Iterations 0
DILUPBiCG:  Solving for Ux, Initial residual = 0.2580115711678083, Final residual = 2.383305921154897e-21, No Iterations 2
DILUPBiCG:  Solving for Uy, Initial residual = 0.2580115713180098, Final residual = 8.617924484121105e-21, No Iterations 2
DILUPBiCG:  Solving for Uz, Initial residual = 0.08805286406088142, Final residual = 3.555555793036382e-21, No Iterations 2
DILUPBiCG:  Solving for e, Initial residual = 0.08804226704665746, Final residual = 1.387395713151189e-20, No Iterations 2
DILUPBiCG:  Solving for p, Initial residual = 0.08805033553617897, Final residual = 3.912975188434799e-11, No Iterations 1
diagonal:  Solving for rho, Initial residual = 0, Final residual = 0, No Iterations 0
time step continuity errors : sum local = 1.241006915697922e-16, global = -4.006702213291422e-17, cumulative = -3.622994374349033e-15
DILUPBiCG:  Solving for p, Initial residual = 2.022174115602867e-08, Final residual = 1.032817074854501e-14, No Iterations 1
diagonal:  Solving for rho, Initial residual = 0, Final residual = 0, No Iterations 0
time step continuity errors : sum local = 1.141847769438583e-16, global = -1.839053577727298e-17, cumulative = -3.641384910126306e-15
DILUPBiCG:  Solving for k, Initial residual = 0.2906877194099947, Final residual = 1.189184446090497e-20, No Iterations 2
ExecutionTime = 8.1 s  ClockTime = 25 s

ORIG_COMP_STEP = 0.9133425610000003
ORIG_IO_STEP = 2.264507150999997
Courant Number mean: 1.028840212222998e-10 max: 5.187377896431863e-05
deltaT = 2.985983999999999e-09
Time = 1.19159e-08

PIMPLE: iteration 1
diagonal:  Solving for rho, Initial residual = 0, Final residual = 0, No Iterations 0
DILUPBiCG:  Solving for Ux, Initial residual = 0.2369027224785576, Final residual = 3.131239314402883e-21, No Iterations 2
DILUPBiCG:  Solving for Uy, Initial residual = 0.2369027226028063, Final residual = 1.195066511710471e-20, No Iterations 2
DILUPBiCG:  Solving for Uz, Initial residual = 0.07712864145506206, Final residual = 4.803130899444397e-21, No Iterations 2
DILUPBiCG:  Solving for e, Initial residual = 0.07711581935362823, Final residual = 1.84298997092958e-20, No Iterations 2
DILUPBiCG:  Solving for p, Initial residual = 0.07712531609596415, Final residual = 4.938232517940316e-11, No Iterations 1
diagonal:  Solving for rho, Initial residual = 0, Final residual = 0, No Iterations 0
time step continuity errors : sum local = 3.658945404346781e-16, global = 3.650449164908845e-16, cumulative = -3.276339993635422e-15
DILUPBiCG:  Solving for p, Initial residual = 1.301607456472526e-08, Final residual = 8.712959335387733e-15, No Iterations 1
diagonal:  Solving for rho, Initial residual = 0, Final residual = 0, No Iterations 0
time step continuity errors : sum local = 3.770007267391175e-16, global = 3.719436763256306e-16, cumulative = -2.904396317309791e-15
DILUPBiCG:  Solving for k, Initial residual = 0.2385158222499986, Final residual = 1.517904176005686e-20, No Iterations 2
ExecutionTime = 11.67 s  ClockTime = 31 s

ORIG_COMP_STEP = 3.575640031999999
ORIG_IO_STEP = 1.978041241
Courant Number mean: 1.234624193969336e-10 max: 6.224506732903097e-05
deltaT = 3.583180799999999e-09
Time = 1.54991e-08

PIMPLE: iteration 1
diagonal:  Solving for rho, Initial residual = 0, Final residual = 0, No Iterations 0
DILUPBiCG:  Solving for Ux, Initial residual = 0.221051948266743, Final residual = 4.163818956501238e-21, No Iterations 2
DILUPBiCG:  Solving for Uy, Initial residual = 0.221051948253123, Final residual = 1.706781536653207e-20, No Iterations 2
DILUPBiCG:  Solving for Uz, Initial residual = 0.06989951241265897, Final residual = 6.830971632306966e-21, No Iterations 2
DILUPBiCG:  Solving for e, Initial residual = 0.06988416797339933, Final residual = 2.570249247425233e-20, No Iterations 2
DILUPBiCG:  Solving for p, Initial residual = 0.06989549159966184, Final residual = 6.448887890110488e-11, No Iterations 1
diagonal:  Solving for rho, Initial residual = 0, Final residual = 0, No Iterations 0
time step continuity errors : sum local = 3.215222966798961e-16, global = 3.211364140362966e-16, cumulative = -2.583259903273494e-15
DILUPBiCG:  Solving for p, Initial residual = 1.022501295732115e-08, Final residual = 6.502488464296514e-15, No Iterations 1
diagonal:  Solving for rho, Initial residual = 0, Final residual = 0, No Iterations 0
time step continuity errors : sum local = 3.155945373141523e-16, global = 3.144534034352559e-16, cumulative = -2.268806499838239e-15
DILUPBiCG:  Solving for k, Initial residual = 0.2042783053779146, Final residual = 2.065918022871097e-20, No Iterations 2
ExecutionTime = 13.72 s  ClockTime = 35 s

ORIG_COMP_STEP = 2.028806831000001
ORIG_IO_STEP = 5.387152570999998
Courant Number mean: 1.481572278474975e-10 max: 7.468909815230523e-05
deltaT = 4.299816959999999e-09
Time = 1.97989e-08

PIMPLE: iteration 1
diagonal:  Solving for rho, Initial residual = 0, Final residual = 0, No Iterations 0
DILUPBiCG:  Solving for Ux, Initial residual = 0.2090173763096395, Final residual = 5.574470701162605e-21, No Iterations 2
DILUPBiCG:  Solving for Uy, Initial residual = 0.2090173762294175, Final residual = 2.506604807654895e-20, No Iterations 2
DILUPBiCG:  Solving for Uz, Initial residual = 0.06483314997489541, Final residual = 1.012387608744201e-20, No Iterations 2
DILUPBiCG:  Solving for e, Initial residual = 0.06481486729182939, Final residual = 3.728079131317007e-20, No Iterations 2
DILUPBiCG:  Solving for p, Initial residual = 0.06482828561443439, Final residual = 8.62051407262664e-11, No Iterations 1
diagonal:  Solving for rho, Initial residual = 0, Final residual = 0, No Iterations 0
time step continuity errors : sum local = 1.385020171290775e-16, global = -7.08730951588395e-17, cumulative = -2.339679594997078e-15
DILUPBiCG:  Solving for p, Initial residual = 8.700736086629944e-09, Final residual = 6.172851784806243e-15, No Iterations 1
diagonal:  Solving for rho, Initial residual = 0, Final residual = 0, No Iterations 0
time step continuity errors : sum local = 1.384214393385997e-16, global = -8.761313992160163e-17, cumulative = -2.42729273491868e-15
DILUPBiCG:  Solving for k, Initial residual = 0.1805909976028821, Final residual = 2.970358080899123e-20, No Iterations 2
ExecutionTime = 14.82 s  ClockTime = 41 s

ORIG_COMP_STEP = 1.084586518000002
ORIG_IO_STEP = 3.978592957000004
Courant Number mean: 1.777920721967301e-10 max: 8.961976116517033e-05
deltaT = 5.159780351999998e-09
Time = 2.49587e-08

PIMPLE: iteration 1
diagonal:  Solving for rho, Initial residual = 0, Final residual = 0, No Iterations 0
DILUPBiCG:  Solving for Ux, Initial residual = 0.1997579944382225, Final residual = 7.461966220769236e-21, No Iterations 2
DILUPBiCG:  Solving for Uy, Initial residual = 0.1997579942953968, Final residual = 3.78068999966906e-20, No Iterations 2
DILUPBiCG:  Solving for Uz, Initial residual = 0.06113782169754421, Final residual = 1.554122587888488e-20, No Iterations 2
DILUPBiCG:  Solving for e, Initial residual = 0.0611159800375109, Final residual = 5.596424184932152e-20, No Iterations 2
DILUPBiCG:  Solving for p, Initial residual = 0.0611320033345229, Final residual = 1.171802828795138e-10, No Iterations 1
diagonal:  Solving for rho, Initial residual = 0, Final residual = 0, No Iterations 0
time step continuity errors : sum local = 2.828028162945638e-16, global = -2.78651460251152e-16, cumulative = -2.705944195169832e-15
DILUPBiCG:  Solving for p, Initial residual = 5.934056051187062e-09, Final residual = 4.616507460844648e-15, No Iterations 1
diagonal:  Solving for rho, Initial residual = 0, Final residual = 0, No Iterations 0
time step continuity errors : sum local = 2.823066563523196e-16, global = -2.783047589247259e-16, cumulative = -2.984248954094558e-15
DILUPBiCG:  Solving for k, Initial residual = 0.1635155365044689, Final residual = 4.485174070551335e-20, No Iterations 2
ExecutionTime = 15.65 s  ClockTime = 46 s

ORIG_COMP_STEP = 0.7836694219999956
ORIG_IO_STEP = 2.143026378999998
Courant Number mean: 2.133554705004098e-10 max: 0.0001075334397309669
deltaT = 6.191736422399998e-09
Time = 3.11504e-08

PIMPLE: iteration 1
diagonal:  Solving for rho, Initial residual = 0, Final residual = 0, No Iterations 0
DILUPBiCG:  Solving for Ux, Initial residual = 0.1925420157857038, Final residual = 1.081172212335329e-20, No Iterations 2
DILUPBiCG:  Solving for Uy, Initial residual = 0.1925420156776922, Final residual = 5.851302679942865e-20, No Iterations 2
DILUPBiCG:  Solving for Uz, Initial residual = 0.05836292826121622, Final residual = 2.461287596947727e-20, No Iterations 2
DILUPBiCG:  Solving for e, Initial residual = 0.05833681223962605, Final residual = 8.672739382976426e-20, No Iterations 2
DILUPBiCG:  Solving for p, Initial residual = 0.05835595338452472, Final residual = 1.612823782479188e-10, No Iterations 1
diagonal:  Solving for rho, Initial residual = 0, Final residual = 0, No Iterations 0
time step continuity errors : sum local = 5.156341113076877e-16, global = -5.076379581612394e-16, cumulative = -3.491886912255797e-15
DILUPBiCG:  Solving for p, Initial residual = 3.917921707226784e-09, Final residual = 3.58148980625947e-15, No Iterations 1
diagonal:  Solving for rho, Initial residual = 0, Final residual = 0, No Iterations 0
time step continuity errors : sum local = 5.242775648901267e-16, global = -5.215978112903735e-16, cumulative = -4.013484723546171e-15
DILUPBiCG:  Solving for k, Initial residual = 0.1508058226571643, Final residual = 7.086254371622484e-20, No Iterations 2
ExecutionTime = 16.82 s  ClockTime = 50 s

ORIG_COMP_STEP = 1.130572440000002
ORIG_IO_STEP = 3.651285674
Courant Number mean: 2.560338970663453e-10 max: 0.0001290253889150596
deltaT = 7.430083706879997e-09
Time = 3.85805e-08

PIMPLE: iteration 1
diagonal:  Solving for rho, Initial residual = 0, Final residual = 0, No Iterations 0
DILUPBiCG:  Solving for Ux, Initial residual = 0.1868538213525069, Final residual = 2.122068565489585e-20, No Iterations 2
DILUPBiCG:  Solving for Uy, Initial residual = 0.1868538212653833, Final residual = 9.286050761555727e-20, No Iterations 2
DILUPBiCG:  Solving for Uz, Initial residual = 0.05623297147349691, Final residual = 4.009334024014956e-20, No Iterations 2
DILUPBiCG:  Solving for e, Initial residual = 0.05620172068979842, Final residual = 1.385873966221184e-19, No Iterations 2
DILUPBiCG:  Solving for p, Initial residual = 0.05622463719452626, Final residual = 2.241098906416331e-10, No Iterations 1
diagonal:  Solving for rho, Initial residual = 0, Final residual = 0, No Iterations 0
time step continuity errors : sum local = 2.402137559848011e-16, global = 2.07897537975349e-16, cumulative = -3.805587185570822e-15
DILUPBiCG:  Solving for p, Initial residual = 4.99856985374324e-09, Final residual = 5.274350305100571e-15, No Iterations 1
diagonal:  Solving for rho, Initial residual = 0, Final residual = 0, No Iterations 0
time step continuity errors : sum local = 1.981792997391464e-16, global = 1.563923960460688e-16, cumulative = -3.649194789524753e-15
DILUPBiCG:  Solving for k, Initial residual = 0.1411037708907263, Final residual = 1.168558455456475e-19, No Iterations 2
ExecutionTime = 17.45 s  ClockTime = 54 s

ORIG_COMP_STEP = 0.5907403240000022
ORIG_IO_STEP = 2.00314685
Courant Number mean: 3.072515049200223e-10 max: 0.0001548093385833502
deltaT = 8.916100448255996e-09
Time = 4.74966e-08

PIMPLE: iteration 1
diagonal:  Solving for rho, Initial residual = 0, Final residual = 0, No Iterations 0
DILUPBiCG:  Solving for Ux, Initial residual = 0.1823252192721314, Final residual = 4.437737041361268e-20, No Iterations 2
DILUPBiCG:  Solving for Uy, Initial residual = 0.1823252191728467, Final residual = 1.509971594666085e-19, No Iterations 2
DILUPBiCG:  Solving for Uz, Initial residual = 0.05456992971929588, Final residual = 6.699812000257458e-20, No Iterations 2
DILUPBiCG:  Solving for e, Initial residual = 0.05453252077801956, Final residual = 2.282694000593082e-19, No Iterations 2
DILUPBiCG:  Solving for p, Initial residual = 0.05455995629578969, Final residual = 3.13746998901875e-10, No Iterations 1
diagonal:  Solving for rho, Initial residual = 0, Final residual = 0, No Iterations 0
time step continuity errors : sum local = 1.466308683826626e-16, global = -6.726420622572961e-17, cumulative = -3.716458995750483e-15
DILUPBiCG:  Solving for p, Initial residual = 4.551628071406364e-09, Final residual = 5.652247538983195e-15, No Iterations 1
diagonal:  Solving for rho, Initial residual = 0, Final residual = 0, No Iterations 0
time step continuity errors : sum local = 1.538043955319202e-16, global = -1.093763452904292e-16, cumulative = -3.825835341040913e-15
DILUPBiCG:  Solving for k, Initial residual = 0.1335467959424605, Final residual = 2.00756469080032e-19, No Iterations 2
ExecutionTime = 18.89 s  ClockTime = 58 s

ORIG_COMP_STEP = 1.437586492000001
ORIG_IO_STEP = 2.705439301000006
Courant Number mean: 3.687178649866706e-10 max: 0.0001857409471672457
deltaT = 1.069932053790719e-08
Time = 5.81959e-08

PIMPLE: iteration 1
diagonal:  Solving for rho, Initial residual = 0, Final residual = 0, No Iterations 0
DILUPBiCG:  Solving for Ux, Initial residual = 0.1786887643647463, Final residual = 9.794646743901423e-20, No Iterations 2
DILUPBiCG:  Solving for Uy, Initial residual = 0.1786887642967372, Final residual = 2.512795871102779e-19, No Iterations 2
DILUPBiCG:  Solving for Uz, Initial residual = 0.0532535914577939, Final residual = 1.145378007157796e-19, No Iterations 2
DILUPBiCG:  Solving for e, Initial residual = 0.05320880399408481, Final residual = 3.875448260255125e-19, No Iterations 2
DILUPBiCG:  Solving for p, Initial residual = 0.05324165624150985, Final residual = 4.418679479201509e-10, No Iterations 1
diagonal:  Solving for rho, Initial residual = 0, Final residual = 0, No Iterations 0
time step continuity errors : sum local = 1.629336480610676e-16, global = -8.886089405032501e-17, cumulative = -3.914696235091238e-15
DILUPBiCG:  Solving for p, Initial residual = 3.15377068229818e-09, Final residual = 4.64544927367907e-15, No Iterations 1
diagonal:  Solving for rho, Initial residual = 0, Final residual = 0, No Iterations 0
time step continuity errors : sum local = 1.549896390181364e-16, global = -1.257591812339573e-16, cumulative = -4.040455416325196e-15
DILUPBiCG:  Solving for k, Initial residual = 0.1275639042350173, Final residual = 3.58696681687893e-19, No Iterations 2
ExecutionTime = 23.02 s  ClockTime = 65 s

ORIG_COMP_STEP = 4.125923006000001
ORIG_IO_STEP = 2.620376954000001
Courant Number mean: 4.42485367249014e-10 max: 0.0002228458487620226
deltaT = 1.283918464548863e-08
Time = 7.10351e-08

PIMPLE: iteration 1
diagonal:  Solving for rho, Initial residual = 0, Final residual = 0, No Iterations 0
DILUPBiCG:  Solving for Ux, Initial residual = 0.1757467244555315, Final residual = 2.26149072223602e-19, No Iterations 2
DILUPBiCG:  Solving for Uy, Initial residual = 0.175746724426568, Final residual = 4.271498239015347e-19, No Iterations 2
DILUPBiCG:  Solving for Uz, Initial residual = 0.05219981725050042, Final residual = 1.996943587863204e-19, No Iterations 2
DILUPBiCG:  Solving for e, Initial residual = 0.05214614894795572, Final residual = 6.782302404497037e-19, No Iterations 2
DILUPBiCG:  Solving for p, Initial residual = 0.05218555415538617, Final residual = 6.253490175008832e-10, No Iterations 1
diagonal:  Solving for rho, Initial residual = 0, Final residual = 0, No Iterations 0
time step continuity errors : sum local = 4.583879379834484e-16, global = -4.110502267566069e-16, cumulative = -4.451505643081803e-15
DILUPBiCG:  Solving for p, Initial residual = 2.602022406644211e-09, Final residual = 4.574439610796516e-15, No Iterations 1
diagonal:  Solving for rho, Initial residual = 0, Final residual = 0, No Iterations 0
time step continuity errors : sum local = 4.28616976134467e-16, global = -4.285698601029964e-16, cumulative = -4.8800755031848e-15
DILUPBiCG:  Solving for k, Initial residual = 0.1227636793079801, Final residual = 6.653034494128202e-19, No Iterations 2
ExecutionTime = 24.21 s  ClockTime = 68 s

ORIG_COMP_STEP = 1.147113513000001
ORIG_IO_STEP = 2.698842198999998
Courant Number mean: 5.310182840454067e-10 max: 0.0002673531757326263
deltaT = 1.540702157458636e-08
Time = 8.64421e-08

PIMPLE: iteration 1
diagonal:  Solving for rho, Initial residual = 0, Final residual = 0, No Iterations 0
DILUPBiCG:  Solving for Ux, Initial residual = 0.1733503985285519, Final residual = 5.549808690277984e-19, No Iterations 2
DILUPBiCG:  Solving for Uy, Initial residual = 0.1733503985401945, Final residual = 7.395475750081986e-19, No Iterations 2
DILUPBiCG:  Solving for Uz, Initial residual = 0.05134793187308747, Final residual = 3.53682358844754e-19, No Iterations 2
DILUPBiCG:  Solving for e, Initial residual = 0.05128367494654836, Final residual = 1.223461673166898e-18, No Iterations 2
DILUPBiCG:  Solving for p, Initial residual = 0.05133091670730965, Final residual = 8.886173022609207e-10, No Iterations 1
diagonal:  Solving for rho, Initial residual = 0, Final residual = 0, No Iterations 0
time step continuity errors : sum local = 2.823911473225993e-16, global = 2.684417781602919e-16, cumulative = -4.611633725024508e-15
DILUPBiCG:  Solving for p, Initial residual = 2.79942435294722e-09, Final residual = 5.887452648697415e-15, No Iterations 1
diagonal:  Solving for rho, Initial residual = 0, Final residual = 0, No Iterations 0
time step continuity errors : sum local = 2.439842388885643e-16, global = 2.359940163040138e-16, cumulative = -4.375639708720494e-15
DILUPBiCG:  Solving for k, Initial residual = 0.1188696863739056, Final residual = 1.278267122767938e-18, No Iterations 2
ExecutionTime = 26.81 s  ClockTime = 74 s

ORIG_COMP_STEP = 2.594589975000005
ORIG_IO_STEP = 2.210489659999993
Courant Number mean: 6.372759377241393e-10 max: 0.0003207356037221297
deltaT = 1.848842588950363e-08
Time = 1.04931e-07

PIMPLE: iteration 1
diagonal:  Solving for rho, Initial residual = 0, Final residual = 0, No Iterations 0
DILUPBiCG:  Solving for Ux, Initial residual = 0.1713861774887342, Final residual = 1.450494789935039e-18, No Iterations 2
DILUPBiCG:  Solving for Uy, Initial residual = 0.1713861775110151, Final residual = 1.298363904801214e-18, No Iterations 2
DILUPBiCG:  Solving for Uz, Initial residual = 0.05065305861566516, Final residual = 6.330680998187671e-19, No Iterations 2
DILUPBiCG:  Solving for e, Initial residual = 0.05057613481286299, Final residual = 2.274152354246295e-18, No Iterations 2
DILUPBiCG:  Solving for p, Initial residual = 0.05063278106780595, Final residual = 1.267091378782567e-09, No Iterations 1
diagonal:  Solving for rho, Initial residual = 0, Final residual = 0, No Iterations 0
time step continuity errors : sum local = 3.570823512685263e-16, global = 3.549047233106431e-16, cumulative = -4.020734985409851e-15
DILUPBiCG:  Solving for p, Initial residual = 2.959459292659892e-09, Final residual = 7.510410898387538e-15, No Iterations 1
diagonal:  Solving for rho, Initial residual = 0, Final residual = 0, No Iterations 0
time step continuity errors : sum local = 2.80467687653332e-16, global = 2.764836990322739e-16, cumulative = -3.744251286377577e-15
DILUPBiCG:  Solving for k, Initial residual = 0.1156816090483636, Final residual = 2.537887001829642e-18, No Iterations 2
ExecutionTime = 28.55 s  ClockTime = 78 s

ORIG_COMP_STEP = 1.691411267000007
ORIG_IO_STEP = 1.778115958000001
Courant Number mean: 7.648129722811443e-10 max: 0.0003847571616184497
deltaT = 2.218611106740435e-08
Time = 1.27117e-07

PIMPLE: iteration 1
diagonal:  Solving for rho, Initial residual = 0, Final residual = 0, No Iterations 0
DILUPBiCG:  Solving for Ux, Initial residual = 0.1697659847985148, Final residual = 3.866332822175048e-18, No Iterations 2
DILUPBiCG:  Solving for Uy, Initial residual = 0.169765984816005, Final residual = 2.296163424116102e-18, No Iterations 2
DILUPBiCG:  Solving for Uz, Initial residual = 0.05008126763566777, Final residual = 1.136967932588474e-18, No Iterations 2
DILUPBiCG:  Solving for e, Initial residual = 0.04998919237867611, Final residual = 4.352777083967768e-18, No Iterations 2
DILUPBiCG:  Solving for p, Initial residual = 0.05005712958497584, Final residual = 1.812221855257487e-09, No Iterations 1
diagonal:  Solving for rho, Initial residual = 0, Final residual = 0, No Iterations 0
time step continuity errors : sum local = 3.685065817434414e-16, global = -1.055388375881541e-16, cumulative = -3.849790123965731e-15
DILUPBiCG:  Solving for p, Initial residual = 3.23610380060163e-09, Final residual = 1.000300967671848e-14, No Iterations 1
diagonal:  Solving for rho, Initial residual = 0, Final residual = 0, No Iterations 0
time step continuity errors : sum local = 2.493211834438013e-16, global = -2.312889758122766e-16, cumulative = -4.081079099778008e-15
DILUPBiCG:  Solving for k, Initial residual = 0.1130510224531979, Final residual = 5.192719967538346e-18, No Iterations 2
ExecutionTime = 30.19 s  ClockTime = 81 s

ORIG_COMP_STEP = 1.605632668999988
ORIG_IO_STEP = 4.220587448999993
Courant Number mean: 9.179004421100138e-10 max: 0.000461530283070382
deltaT = 2.662333328088522e-08
Time = 1.5374e-07

PIMPLE: iteration 1
diagonal:  Solving for rho, Initial residual = 0, Final residual = 0, No Iterations 0
DILUPBiCG:  Solving for Ux, Initial residual = 0.168420594438658, Final residual = 1.074574984014608e-17, No Iterations 2
DILUPBiCG:  Solving for Uy, Initial residual = 0.1684205944511121, Final residual = 4.049283867483097e-18, No Iterations 2
DILUPBiCG:  Solving for Uz, Initial residual = 0.04960639577142946, Final residual = 2.02688737460547e-18, No Iterations 2
DILUPBiCG:  Solving for e, Initial residual = 0.04949620282961069, Final residual = 8.570016384440168e-18, No Iterations 2
DILUPBiCG:  Solving for p, Initial residual = 0.04957770391382313, Final residual = 2.598911255922536e-09, No Iterations 1
diagonal:  Solving for rho, Initial residual = 0, Final residual = 0, No Iterations 0
time step continuity errors : sum local = 8.084537114033464e-16, global = -3.803772481526012e-16, cumulative = -4.461456347930609e-15
DILUPBiCG:  Solving for p, Initial residual = 4.093371879367517e-09, Final residual = 1.544632070142331e-14, No Iterations 1
diagonal:  Solving for rho, Initial residual = 0, Final residual = 0, No Iterations 0
time step continuity errors : sum local = 5.882941521185579e-16, global = -5.854208243244634e-16, cumulative = -5.046877172255073e-15
DILUPBiCG:  Solving for k, Initial residual = 0.1108658386651214, Final residual = 1.091790443128409e-17, No Iterations 2
ExecutionTime = 31.86 s  ClockTime = 87 s

ORIG_COMP_STEP = 1.651328675000002
ORIG_IO_STEP = 2.69421225699999
Courant Number mean: 1.101672360564798e-09 max: 0.0005535838593398181
deltaT = 3.194799993706226e-08
Time = 1.85688e-07

PIMPLE: iteration 1
diagonal:  Solving for rho, Initial residual = 0, Final residual = 0, No Iterations 0
DILUPBiCG:  Solving for Ux, Initial residual = 0.1672948892204348, Final residual = 3.265471113822279e-17, No Iterations 2
DILUPBiCG:  Solving for Uy, Initial residual = 0.1672948892287308, Final residual = 7.002467148816484e-18, No Iterations 2
DILUPBiCG:  Solving for Uz, Initial residual = 0.04920787829685293, Final residual = 3.522198388121551e-18, No Iterations 2
DILUPBiCG:  Solving for e, Initial residual = 0.04907605879747298, Final residual = 1.733068059163619e-17, No Iterations 2
DILUPBiCG:  Solving for p, Initial residual = 0.04917384502536678, Final residual = 3.736469023027195e-09, No Iterations 1
diagonal:  Solving for rho, Initial residual = 0, Final residual = 0, No Iterations 0
time step continuity errors : sum local = 4.990412333202222e-16, global = 3.372126337103583e-16, cumulative = -4.709664538544714e-15
DILUPBiCG:  Solving for p, Initial residual = 4.733048198267413e-09, Final residual = 2.209249423267293e-14, No Iterations 1
diagonal:  Solving for rho, Initial residual = 0, Final residual = 0, No Iterations 0
time step continuity errors : sum local = 1.167468852679454e-16, global = -4.776308532331405e-17, cumulative = -4.757427623868028e-15
DILUPBiCG:  Solving for k, Initial residual = 0.109039895700448, Final residual = 2.351973633687692e-17, No Iterations 2
ExecutionTime = 32.45 s  ClockTime = 91 s

ORIG_COMP_STEP = 0.5540859739999888
ORIG_IO_STEP = 2.788355035000009
Courant Number mean: 1.322303588058144e-09 max: 0.0006639444024474677
deltaT = 3.833759992447472e-08
Time = 2.24026e-07

PIMPLE: iteration 1
diagonal:  Solving for rho, Initial residual = 0, Final residual = 0, No Iterations 0
DILUPBiCG:  Solving for Ux, Initial residual = 0.1663444151333358, Final residual = 1.310515138028232e-16, No Iterations 2
DILUPBiCG:  Solving for Uy, Initial residual = 0.1663444151366394, Final residual = 1.150692382156964e-17, No Iterations 2
DILUPBiCG:  Solving for Uz, Initial residual = 0.04886928998861281, Final residual = 5.760998304809604e-18, No Iterations 2
DILUPBiCG:  Solving for e, Initial residual = 0.04871167230988345, Final residual = 3.593304245333128e-17, No Iterations 2
DILUPBiCG:  Solving for p, Initial residual = 0.04882900400155374, Final residual = 5.384858479293313e-09, No Iterations 1
diagonal:  Solving for rho, Initial residual = 0, Final residual = 0, No Iterations 0
time step continuity errors : sum local = 7.765520164992577e-16, global = 7.372415765672492e-16, cumulative = -4.020186047300779e-15
DILUPBiCG:  Solving for p, Initial residual = 6.32443306599496e-09, Final residual = 3.655295665951178e-14, No Iterations 1
diagonal:  Solving for rho, Initial residual = 0, Final residual = 0, No Iterations 0
time step continuity errors : sum local = 1.336991273229433e-16, global = 7.090250632005465e-17, cumulative = -3.949283540980724e-15
DILUPBiCG:  Solving for k, Initial residual = 0.1075059387720281, Final residual = 5.176386820906235e-17, No Iterations 2
ExecutionTime = 33.89 s  ClockTime = 95 s

ORIG_COMP_STEP = 1.417513353999993
ORIG_IO_STEP = 2.82963393899999
Courant Number mean: 1.587226623909269e-09 max: 0.0007962328698137063
deltaT = 4.600511990936966e-08
Time = 2.70031e-07

PIMPLE: iteration 1
diagonal:  Solving for rho, Initial residual = 0, Final residual = 0, No Iterations 0
DILUPBiCG:  Solving for Ux, Initial residual = 0.1655328482011363, Final residual = 1.158065532862121e-15, No Iterations 2
DILUPBiCG:  Solving for Uy, Initial residual = 0.165532848203712, Final residual = 1.668423133865662e-17, No Iterations 2
DILUPBiCG:  Solving for Uz, Initial residual = 0.04857727214039851, Final residual = 8.128589475782603e-18, No Iterations 2
DILUPBiCG:  Solving for e, Initial residual = 0.0483889106361956, Final residual = 7.623258613957594e-17, No Iterations 2
DILUPBiCG:  Solving for p, Initial residual = 0.04852970957931717, Final residual = 7.778904949775265e-09, No Iterations 1
diagonal:  Solving for rho, Initial residual = 0, Final residual = 0, No Iterations 0
time step continuity errors : sum local = 1.371871623139597e-15, global = 8.693446626175842e-16, cumulative = -3.07993887836314e-15
DILUPBiCG:  Solving for p, Initial residual = 8.993988504502755e-09, Final residual = 6.446785703228071e-14, No Iterations 1
diagonal:  Solving for rho, Initial residual = 0, Final residual = 0, No Iterations 0
time step continuity errors : sum local = 2.544528018839566e-16, global = -2.448166945762886e-16, cumulative = -3.324755572939429e-15
DILUPBiCG:  Solving for k, Initial residual = 0.1062108298585987, Final residual = 1.160751360032347e-16, No Iterations 2
ExecutionTime = 34.77 s  ClockTime = 99 s

ORIG_COMP_STEP = 0.8633915919999993
ORIG_IO_STEP = 2.598800278999988
Courant Number mean: 1.90539721751842e-09 max: 0.0009547802819188071
deltaT = 5.520614389124359e-08
Time = 3.25237e-07

PIMPLE: iteration 1
diagonal:  Solving for rho, Initial residual = 0, Final residual = 0, No Iterations 0
DILUPBiCG:  Solving for Ux, Initial residual = 0.1648300894264998, Final residual = 1.366692620586083e-16, No Iterations 2
DILUPBiCG:  Solving for Uy, Initial residual = 0.1648300894259405, Final residual = 1.60800031295115e-17, No Iterations 2
DILUPBiCG:  Solving for Uz, Initial residual = 0.04832074018476272, Final residual = 6.735884760343899e-18, No Iterations 2
DILUPBiCG:  Solving for e, Initial residual = 0.04809575542387782, Final residual = 1.651262370025975e-16, No Iterations 2
DILUPBiCG:  Solving for p, Initial residual = 0.04826475276847681, Final residual = 1.12645433933314e-08, No Iterations 1
diagonal:  Solving for rho, Initial residual = 0, Final residual = 0, No Iterations 0
time step continuity errors : sum local = 2.16224986704341e-15, global = 2.124714154695961e-15, cumulative = -1.200041418243468e-15
DILUPBiCG:  Solving for p, Initial residual = 1.301066879517855e-08, Final residual = 1.162720663435101e-13, No Iterations 1
diagonal:  Solving for rho, Initial residual = 0, Final residual = 0, No Iterations 0
time step continuity errors : sum local = 2.666452573702183e-16, global = 2.133299175986428e-16, cumulative = -9.867115006448249e-16
DILUPBiCG:  Solving for k, Initial residual = 0.1051120051464745, Final residual = 2.645318126907513e-16, No Iterations 2
ExecutionTime = 36.51 s  ClockTime = 103 s

ORIG_COMP_STEP = 1.711413890000003
ORIG_IO_STEP = 3.718220694999999
Courant Number mean: 2.287622078246289e-09 max: 0.00114476605899438
deltaT = 6.62473726694923e-08
Time = 3.91484e-07

PIMPLE: iteration 1
diagonal:  Solving for rho, Initial residual = 0, Final residual = 0, No Iterations 0
DILUPBiCG:  Solving for Ux, Initial residual = 0.1642108139437164, Final residual = 2.091191818455114e-16, No Iterations 2
DILUPBiCG:  Solving for Uy, Initial residual = 0.1642108139411914, Final residual = 3.704749275097782e-17, No Iterations 2
DILUPBiCG:  Solving for Uz, Initial residual = 0.0480903056942252, Final residual = 1.675888682240219e-17, No Iterations 2
DILUPBiCG:  Solving for e, Initial residual = 0.04782179773387319, Final residual = 3.643815895474208e-16, No Iterations 2
DILUPBiCG:  Solving for p, Initial residual = 0.04802468063346646, Final residual = 1.635342863170382e-08, No Iterations 1
diagonal:  Solving for rho, Initial residual = 0, Final residual = 0, No Iterations 0
time step continuity errors : sum local = 3.633869728007997e-15, global = 3.618392381649247e-15, cumulative = 2.631680881004422e-15
DILUPBiCG:  Solving for p, Initial residual = 1.920785985751317e-08, Final residual = 2.147851543473862e-13, No Iterations 1
diagonal:  Solving for rho, Initial residual = 0, Final residual = 0, No Iterations 0
time step continuity errors : sum local = 2.452408184325668e-16, global = 2.333353125401018e-16, cumulative = 2.865016193544524e-15
DILUPBiCG:  Solving for k, Initial residual = 0.1041750099001412, Final residual = 6.113036171067509e-16, No Iterations 2
ExecutionTime = 38.33 s  ClockTime = 109 s

ORIG_COMP_STEP = 1.793800013999999
ORIG_IO_STEP = 2.646105183000003
Courant Number mean: 2.746966890367439e-09 max: 0.001372384141132108
deltaT = 7.949684720339076e-08
Time = 4.70981e-07

PIMPLE: iteration 1
diagonal:  Solving for rho, Initial residual = 0, Final residual = 0, No Iterations 0
DILUPBiCG:  Solving for Ux, Initial residual = 0.1636533488207854, Final residual = 1.215558871453007e-15, No Iterations 2
DILUPBiCG:  Solving for Uy, Initial residual = 0.1636533488164346, Final residual = 2.211913743419717e-16, No Iterations 2
DILUPBiCG:  Solving for Uz, Initial residual = 0.0478778383373356, Final residual = 1.148258345889918e-16, No Iterations 2
DILUPBiCG:  Solving for e, Initial residual = 0.04755770310192619, Final residual = 8.173465640158069e-16, No Iterations 2
DILUPBiCG:  Solving for p, Initial residual = 0.04780129786612471, Final residual = 2.380563623661185e-08, No Iterations 1
diagonal:  Solving for rho, Initial residual = 0, Final residual = 0, No Iterations 0
time step continuity errors : sum local = 6.113569879536124e-15, global = 6.083453043646582e-15, cumulative = 8.948469237191106e-15
DILUPBiCG:  Solving for p, Initial residual = 2.882817327860465e-08, Final residual = 4.053214958473591e-13, No Iterations 1
diagonal:  Solving for rho, Initial residual = 0, Final residual = 0, No Iterations 0
time step continuity errors : sum local = 1.480683885573085e-16, global = 1.252376364795926e-16, cumulative = 9.073706873670699e-15
DILUPBiCG:  Solving for k, Initial residual = 0.1033716719611487, Final residual = 1.429558712027399e-15, No Iterations 2
ExecutionTime = 41.03 s  ClockTime = 114 s

ORIG_COMP_STEP = 2.678317352999997
ORIG_IO_STEP = 2.494618947999996
Courant Number mean: 3.299270210814398e-09 max: 0.001645043660236679
deltaT = 9.53962166440689e-08
Time = 5.66377e-07

PIMPLE: iteration 1
diagonal:  Solving for rho, Initial residual = 0, Final residual = 0, No Iterations 0
DILUPBiCG:  Solving for Ux, Initial residual = 0.1631388013592444, Final residual = 4.493778382941672e-15, No Iterations 2
DILUPBiCG:  Solving for Uy, Initial residual = 0.1631388013550073, Final residual = 8.814512529042563e-16, No Iterations 2
DILUPBiCG:  Solving for Uz, Initial residual = 0.04767612719635286, Final residual = 4.719315886274748e-16, No Iterations 2
DILUPBiCG:  Solving for e, Initial residual = 0.04729490956526354, Final residual = 1.859707262356702e-15, No Iterations 2
DILUPBiCG:  Solving for p, Initial residual = 0.04758739309791582, Final residual = 3.475578445311973e-08, No Iterations 1
diagonal:  Solving for rho, Initial residual = 0, Final residual = 0, No Iterations 0
time step continuity errors : sum local = 1.09210074224102e-14, global = 1.090796683059216e-14, cumulative = 1.998167370426286e-14
DILUPBiCG:  Solving for p, Initial residual = 4.351989964449605e-08, Final residual = 7.740190718173594e-13, No Iterations 1
diagonal:  Solving for rho, Initial residual = 0, Final residual = 0, No Iterations 0
time step continuity errors : sum local = 5.046404420249969e-16, global = 4.960786507494241e-16, cumulative = 2.047775235501228e-14
DILUPBiCG:  Solving for k, Initial residual = 0.1026787464362843, Final residual = 3.37713621025996e-15, No Iterations 2
ExecutionTime = 41.71 s  ClockTime = 118 s

ORIG_COMP_STEP = 0.5765000760000021
ORIG_IO_STEP = 3.706682151999999
Courant Number mean: 3.963800060934276e-09 max: 0.00197161358078579
deltaT = 1.144754599728827e-07
Time = 6.80853e-07

PIMPLE: iteration 1
diagonal:  Solving for rho, Initial residual = 0, Final residual = 0, No Iterations 0
DILUPBiCG:  Solving for Ux, Initial residual = 0.1626503789249244, Final residual = 1.487956091555022e-14, No Iterations 2
DILUPBiCG:  Solving for Uy, Initial residual = 0.162650378921452, Final residual = 3.074133665586286e-15, No Iterations 2
DILUPBiCG:  Solving for Uz, Initial residual = 0.04747862115151098, Final residual = 1.667195677660891e-15, No Iterations 2
DILUPBiCG:  Solving for e, Initial residual = 0.04702535173465554, Final residual = 4.283541261688844e-15, No Iterations 2
DILUPBiCG:  Solving for p, Initial residual = 0.04737651155261112, Final residual = 5.090654858112439e-08, No Iterations 1
diagonal:  Solving for rho, Initial residual = 0, Final residual = 0, No Iterations 0
time step continuity errors : sum local = 1.8460394096219e-14, global = 1.813828156593273e-14, cumulative = 3.861603392094501e-14
DILUPBiCG:  Solving for p, Initial residual = 6.644440223624041e-08, Final residual = 3.304309669266558e-18, No Iterations 2
diagonal:  Solving for rho, Initial residual = 0, Final residual = 0, No Iterations 0
time step continuity errors : sum local = 1.752630723381174e-16, global = -1.253771364299908e-16, cumulative = 3.849065678451502e-14
DILUPBiCG:  Solving for k, Initial residual = 0.1020768882285557, Final residual = 8.047038732216981e-15, No Iterations 2
ExecutionTime = 42.36 s  ClockTime = 122 s

ORIG_COMP_STEP = 0.6383086350000013
ORIG_IO_STEP = 1.970337313000002
Courant Number mean: 4.764107406326354e-09 max: 0.002362724964296397
deltaT = 1.373705519674592e-07
Time = 8.18223e-07

PIMPLE: iteration 1
diagonal:  Solving for rho, Initial residual = 0, Final residual = 0, No Iterations 0
DILUPBiCG:  Solving for Ux, Initial residual = 0.162172868969985, Final residual = 4.709972374147458e-14, No Iterations 2
DILUPBiCG:  Solving for Uy, Initial residual = 0.1621728689670039, Final residual = 1.005983027623018e-14, No Iterations 2
DILUPBiCG:  Solving for Uz, Initial residual = 0.04727922534939234, Final residual = 5.493429192565141e-15, No Iterations 2
DILUPBiCG:  Solving for e, Initial residual = 0.04674126744858398, Final residual = 9.96956332514973e-15, No Iterations 2
DILUPBiCG:  Solving for p, Initial residual = 0.04716279868368555, Final residual = 7.482749040988725e-08, No Iterations 1
diagonal:  Solving for rho, Initial residual = 0, Final residual = 0, No Iterations 0
time step continuity errors : sum local = 3.246857149408821e-14, global = 3.242360475342117e-14, cumulative = 7.09142615379362e-14
DILUPBiCG:  Solving for p, Initial residual = 1.022068078549119e-07, Final residual = 1.167804338725275e-17, No Iterations 2
diagonal:  Solving for rho, Initial residual = 0, Final residual = 0, No Iterations 0
time step continuity errors : sum local = 2.605347078121439e-16, global = 2.459188469365875e-16, cumulative = 7.116018038487278e-14
DILUPBiCG:  Solving for k, Initial residual = 0.1015499011526752, Final residual = 1.931519334059623e-14, No Iterations 2
ExecutionTime = 44.48 s  ClockTime = 126 s

ORIG_COMP_STEP = 2.097115498999997
ORIG_IO_STEP = 2.09375673800001
Courant Number mean: 5.729157945649165e-09 max: 0.002831151431704673
deltaT = 1.64844662360951e-07
Time = 9.83068e-07

PIMPLE: iteration 1
diagonal:  Solving for rho, Initial residual = 0, Final residual = 0, No Iterations 0
DILUPBiCG:  Solving for Ux, Initial residual = 0.1616922641552398, Final residual = 1.457284788015027e-13, No Iterations 2
DILUPBiCG:  Solving for Uy, Initial residual = 0.1616922641532017, Final residual = 3.176629330236205e-14, No Iterations 2
DILUPBiCG:  Solving for Uz, Initial residual = 0.04707219310825708, Final residual = 1.742288523113421e-14, No Iterations 2
DILUPBiCG:  Solving for e, Initial residual = 0.04643511541784439, Final residual = 2.34060302932332e-14, No Iterations 2
DILUPBiCG:  Solving for p, Initial residual = 0.04694093758146087, Final residual = 1.10419370848601e-07, No Iterations 1
diagonal:  Solving for rho, Initial residual = 0, Final residual = 0, No Iterations 0
time step continuity errors : sum local = 5.715552487733157e-14, global = 5.707571182624442e-14, cumulative = 1.282358922111172e-13
DILUPBiCG:  Solving for p, Initial residual = 1.580655905239203e-07, Final residual = 4.165108101700506e-17, No Iterations 2
diagonal:  Solving for rho, Initial residual = 0, Final residual = 0, No Iterations 0
time step continuity errors : sum local = 2.034257418755835e-16, global = 1.946116926190756e-16, cumulative = 1.284305039037363e-13
DILUPBiCG:  Solving for k, Initial residual = 0.1010841810070974, Final residual = 4.665061572094885e-14, No Iterations 2
ExecutionTime = 45.68 s  ClockTime = 130 s

ORIG_COMP_STEP = 1.190026716000006
ORIG_IO_STEP = 2.597056174000002
Courant Number mean: 6.894866665633314e-09 max: 0.003392299833639981
deltaT = 1.978135948331412e-07
Time = 1.18088e-06

PIMPLE: iteration 1
diagonal:  Solving for rho, Initial residual = 0, Final residual = 0, No Iterations 0
DILUPBiCG:  Solving for Ux, Initial residual = 0.1611955304066123, Final residual = 4.450313943775167e-13, No Iterations 2
DILUPBiCG:  Solving for Uy, Initial residual = 0.161195530405374, Final residual = 9.812910592027754e-14, No Iterations 2
DILUPBiCG:  Solving for Uz, Initial residual = 0.04685203757428737, Final residual = 5.39951963326709e-14, No Iterations 2
DILUPBiCG:  Solving for e, Initial residual = 0.04609956093074553, Final residual = 5.53467256508844e-14, No Iterations 2
DILUPBiCG:  Solving for p, Initial residual = 0.04670615229714872, Final residual = 1.636395266754208e-07, No Iterations 1
diagonal:  Solving for rho, Initial residual = 0, Final residual = 0, No Iterations 0
time step continuity errors : sum local = 1.015062412991503e-13, global = 1.0018406376219e-13, cumulative = 2.286145676659263e-13
DILUPBiCG:  Solving for p, Initial residual = 2.454875539418677e-07, Final residual = 1.499344891301437e-16, No Iterations 2
diagonal:  Solving for rho, Initial residual = 0, Final residual = 0, No Iterations 0
time step continuity errors : sum local = 5.925625505153363e-16, global = -5.902729694448569e-16, cumulative = 2.280242946964814e-13
DILUPBiCG:  Solving for k, Initial residual = 0.100668261933694, Final residual = 1.132677118837752e-13, No Iterations 2
ExecutionTime = 46.33 s  ClockTime = 133 s

ORIG_COMP_STEP = 0.6185799689999953
ORIG_IO_STEP = 3.236747863999994
Courant Number mean: 8.306228050941064e-09 max: 0.004064862143225853
deltaT = 2.373763137997695e-07
Time = 1.41826e-06

PIMPLE: iteration 1
diagonal:  Solving for rho, Initial residual = 0, Final residual = 0, No Iterations 0
DILUPBiCG:  Solving for Ux, Initial residual = 0.1606705339239803, Final residual = 1.67689923477016e-21, No Iterations 3
DILUPBiCG:  Solving for Uy, Initial residual = 0.160670533923685, Final residual = 2.987502390232627e-13, No Iterations 2
DILUPBiCG:  Solving for Uz, Initial residual = 0.04661356795247138, Final residual = 1.648357063383186e-13, No Iterations 2
DILUPBiCG:  Solving for e, Initial residual = 0.04572760571742113, Final residual = 1.316356384933603e-13, No Iterations 2
DILUPBiCG:  Solving for p, Initial residual = 0.0464543072936808, Final residual = 2.4364017103888e-07, No Iterations 1
diagonal:  Solving for rho, Initial residual = 0, Final residual = 0, No Iterations 0
time step continuity errors : sum local = 1.797602022309542e-13, global = 1.791974357557335e-13, cumulative = 4.072217304522148e-13
DILUPBiCG:  Solving for p, Initial residual = 3.827510214145799e-07, Final residual = 5.456470446444238e-16, No Iterations 2
diagonal:  Solving for rho, Initial residual = 0, Final residual = 0, No Iterations 0
time step continuity errors : sum local = 1.299880472763782e-16, global = 1.044397629696723e-17, cumulative = 4.072321744285118e-13
DILUPBiCG:  Solving for k, Initial residual = 0.1002924923838379, Final residual = 2.762523141182754e-13, No Iterations 2
ExecutionTime = 47 s  ClockTime = 137 s

ORIG_COMP_STEP = 0.6559155509999925
ORIG_IO_STEP = 3.21088753799998
Courant Number mean: 1.002034394638118e-08 max: 0.004871711166575142
deltaT = 2.848515765597234e-07
Time = 1.70311e-06

PIMPLE: iteration 1
diagonal:  Solving for rho, Initial residual = 0, Final residual = 0, No Iterations 0
DILUPBiCG:  Solving for Ux, Initial residual = 0.1601061568144239, Final residual = 1.019666729900965e-20, No Iterations 3
DILUPBiCG:  Solving for Uy, Initial residual = 0.1601061568152773, Final residual = 9.001910481970302e-13, No Iterations 2
DILUPBiCG:  Solving for Uz, Initial residual = 0.04635203042939719, Final residual = 4.979608165484262e-13, No Iterations 2
DILUPBiCG:  Solving for e, Initial residual = 0.04531285991893776, Final residual = 3.145206670427068e-13, No Iterations 2
DILUPBiCG:  Solving for p, Initial residual = 0.04618212266158914, Final residual = 3.645599839631715e-07, No Iterations 1
diagonal:  Solving for rho, Initial residual = 0, Final residual = 0, No Iterations 0
time step continuity errors : sum local = 3.211426765782492e-13, global = 3.200450705997601e-13, cumulative = 7.27277245028272e-13
DILUPBiCG:  Solving for p, Initial residual = 5.982794827287317e-07, Final residual = 2.010077670879533e-15, No Iterations 2
diagonal:  Solving for rho, Initial residual = 0, Final residual = 0, No Iterations 0
time step continuity errors : sum local = 1.524520742422736e-16, global = 1.205068700755467e-16, cumulative = 7.273977518983475e-13
DILUPBiCG:  Solving for k, Initial residual = 0.0999488583741234, Final residual = 6.763549491655675e-13, No Iterations 2
ExecutionTime = 47.62 s  ClockTime = 141 s

ORIG_COMP_STEP = 0.5912713589999896
ORIG_IO_STEP = 2.651793182000006
Courant Number mean: 1.211082482268823e-08 max: 0.005841174881477573
deltaT = 3.41821891871668e-07
Time = 2.04493e-06

PIMPLE: iteration 1
diagonal:  Solving for rho, Initial residual = 0, Final residual = 0, No Iterations 0
DILUPBiCG:  Solving for Ux, Initial residual = 0.159492645774193, Final residual = 7.336941514648063e-20, No Iterations 3
DILUPBiCG:  Solving for Uy, Initial residual = 0.1594926457774713, Final residual = 7.738643048070933e-20, No Iterations 3
DILUPBiCG:  Solving for Uz, Initial residual = 0.04606335021803609, Final residual = 2.353529467996598e-20, No Iterations 3
DILUPBiCG:  Solving for e, Initial residual = 0.04485005533117207, Final residual = 7.541769357097452e-13, No Iterations 2
DILUPBiCG:  Solving for p, Initial residual = 0.04588749857879326, Final residual = 5.483453497347839e-07, No Iterations 1
diagonal:  Solving for rho, Initial residual = 0, Final residual = 0, No Iterations 0
time step continuity errors : sum local = 5.762806446994036e-13, global = 5.732441872759468e-13, cumulative = 1.300641939174294e-12
DILUPBiCG:  Solving for p, Initial residual = 9.367684624012667e-07, Final residual = 7.518287777098083e-15, No Iterations 2
diagonal:  Solving for rho, Initial residual = 0, Final residual = 0, No Iterations 0
time step continuity errors : sum local = 1.906199403805277e-16, global = -1.709018609854348e-16, cumulative = 1.300471037313309e-12
DILUPBiCG:  Solving for k, Initial residual = 0.09963076914275322, Final residual = 3.338772391691699e-20, No Iterations 3
ExecutionTime = 49.99 s  ClockTime = 146 s

ORIG_COMP_STEP = 2.368776209999993
ORIG_IO_STEP = 4.363253756999995
Courant Number mean: 1.467431533044054e-08 max: 0.007008909701035356
deltaT = 4.101862702460016e-07
Time = 2.45512e-06

PIMPLE: iteration 1
diagonal:  Solving for rho, Initial residual = 0, Final residual = 0, No Iterations 0
DILUPBiCG:  Solving for Ux, Initial residual = 0.1588222512607413, Final residual = 5.602404937475244e-19, No Iterations 3
DILUPBiCG:  Solving for Uy, Initial residual = 0.1588222512684838, Final residual = 4.074072067046917e-19, No Iterations 3
DILUPBiCG:  Solving for Uz, Initial residual = 0.04574467797079069, Final residual = 1.570554287354354e-19, No Iterations 3
DILUPBiCG:  Solving for e, Initial residual = 0.04433586816388452, Final residual = 7.057806102423477e-20, No Iterations 3
DILUPBiCG:  Solving for p, Initial residual = 0.04556997538266529, Final residual = 8.291801996405602e-07, No Iterations 1
diagonal:  Solving for rho, Initial residual = 0, Final residual = 0, No Iterations 0
time step continuity errors : sum local = 1.038652817023114e-12, global = 1.031203987414661e-12, cumulative = 2.33167502472797e-12
DILUPBiCG:  Solving for p, Initial residual = 1.467508632457521e-06, Final residual = 2.869978355661991e-14, No Iterations 2
diagonal:  Solving for rho, Initial residual = 0, Final residual = 0, No Iterations 0
time step continuity errors : sum local = 1.881466299145016e-16, global = -1.677686924679555e-16, cumulative = 2.331507256035502e-12
DILUPBiCG:  Solving for k, Initial residual = 0.09933287191841335, Final residual = 1.850463244314935e-19, No Iterations 3
ExecutionTime = 51.17 s  ClockTime = 152 s

ORIG_COMP_STEP = 1.150647423999999
ORIG_IO_STEP = 4.222061228999991
Courant Number mean: 1.784032562042297e-08 max: 0.008420730798768214
deltaT = 4.922235242952019e-07
Time = 2.94734e-06

PIMPLE: iteration 1
diagonal:  Solving for rho, Initial residual = 0, Final residual = 0, No Iterations 0
DILUPBiCG:  Solving for Ux, Initial residual = 0.1580902163543525, Final residual = 4.30310862740905e-18, No Iterations 3
DILUPBiCG:  Solving for Uy, Initial residual = 0.1580902163711141, Final residual = 2.419308886559146e-18, No Iterations 3
DILUPBiCG:  Solving for Uz, Initial residual = 0.04539524118972804, Final residual = 1.071080929839101e-18, No Iterations 3
DILUPBiCG:  Solving for e, Initial residual = 0.04377011949984971, Final residual = 3.857450836709351e-19, No Iterations 3
DILUPBiCG:  Solving for p, Initial residual = 0.0452313942571746, Final residual = 1.260386323013825e-06, No Iterations 1
diagonal:  Solving for rho, Initial residual = 0, Final residual = 0, No Iterations 0
time step continuity errors : sum local = 1.879795822748795e-12, global = 1.861241928577608e-12, cumulative = 4.19274918461311e-12
DILUPBiCG:  Solving for p, Initial residual = 2.297791277898482e-06, Final residual = 1.126438883623347e-13, No Iterations 2
diagonal:  Solving for rho, Initial residual = 0, Final residual = 0, No Iterations 0
time step continuity errors : sum local = 1.318742363618443e-16, global = 1.452382970203884e-17, cumulative = 4.192763708442813e-12
DILUPBiCG:  Solving for k, Initial residual = 0.0990507703250699, Final residual = 1.048133833150584e-18, No Iterations 3
ExecutionTime = 53.12 s  ClockTime = 158 s

ORIG_COMP_STEP = 1.923859362000002
ORIG_IO_STEP = 3.964661885999988
Courant Number mean: 2.178621074160094e-08 max: 0.01013697500769781
deltaT = 5.906682291542422e-07
Time = 3.53801e-06

PIMPLE: iteration 1
diagonal:  Solving for rho, Initial residual = 0, Final residual = 0, No Iterations 0
DILUPBiCG:  Solving for Ux, Initial residual = 0.1572961565791757, Final residual = 3.313917639972374e-17, No Iterations 3
DILUPBiCG:  Solving for Uy, Initial residual = 0.157296156614826, Final residual = 1.584275178889147e-17, No Iterations 3
DILUPBiCG:  Solving for Uz, Initial residual = 0.04501746295461297, Final residual = 7.42233927704337e-18, No Iterations 3
DILUPBiCG:  Solving for e, Initial residual = 0.0431574959896419, Final residual = 2.665609850432296e-18, No Iterations 3
DILUPBiCG:  Solving for p, Initial residual = 0.04488030596425361, Final residual = 1.924445176469889e-06, No Iterations 1
diagonal:  Solving for rho, Initial residual = 0, Final residual = 0, No Iterations 0
time step continuity errors : sum local = 3.414607671376444e-12, global = 3.366138223818872e-12, cumulative = 7.558901932261684e-12
DILUPBiCG:  Solving for p, Initial residual = 3.59253513721352e-06, Final residual = 4.630043803407506e-13, No Iterations 2
diagonal:  Solving for rho, Initial residual = 0, Final residual = 0, No Iterations 0
time step continuity errors : sum local = 2.819093817744204e-16, global = 2.710254644150481e-16, cumulative = 7.5591729577261e-12
DILUPBiCG:  Solving for k, Initial residual = 0.09878049581857971, Final residual = 6.102493832915419e-18, No Iterations 3
ExecutionTime = 54.66 s  ClockTime = 164 s

ORIG_COMP_STEP = 1.462828209000008
ORIG_IO_STEP = 3.337758611999988
Courant Number mean: 2.67599685382116e-08 max: 0.01223925477484665
deltaT = 7.088018749850907e-07
Time = 4.24681e-06

PIMPLE: iteration 1
diagonal:  Solving for rho, Initial residual = 0, Final residual = 0, No Iterations 0
DILUPBiCG:  Solving for Ux, Initial residual = 0.1564459277264603, Final residual = 2.557799733808504e-16, No Iterations 3
DILUPBiCG:  Solving for Uy, Initial residual = 0.1564459278063926, Final residual = 1.111295384601992e-16, No Iterations 3
DILUPBiCG:  Solving for Uz, Initial residual = 0.04461867171353019, Final residual = 5.206418977672728e-17, No Iterations 3
DILUPBiCG:  Solving for e, Initial residual = 0.04251059455878628, Final residual = 1.8123918474029e-17, No Iterations 3
DILUPBiCG:  Solving for p, Initial residual = 0.04452820267944295, Final residual = 2.948206814570023e-06, No Iterations 1
diagonal:  Solving for rho, Initial residual = 0, Final residual = 0, No Iterations 0
time step continuity errors : sum local = 6.217122446153993e-12, global = 6.088264583194738e-12, cumulative = 1.364743754092084e-11
DILUPBiCG:  Solving for p, Initial residual = 5.604024203461244e-06, Final residual = 3.518241405892665e-17, No Iterations 3
diagonal:  Solving for rho, Initial residual = 0, Final residual = 0, No Iterations 0
time step continuity errors : sum local = 2.140443770476568e-16, global = -1.967077462285449e-16, cumulative = 1.364724083317461e-11
DILUPBiCG:  Solving for k, Initial residual = 0.09851750423176472, Final residual = 3.631014442909154e-17, No Iterations 3
ExecutionTime = 56.02 s  ClockTime = 171 s

ORIG_COMP_STEP = 1.326159004999994
ORIG_IO_STEP = 2.752527732000004
Courant Number mean: 3.311482439795729e-08 max: 0.0148409078576447
deltaT = 8.505622499821088e-07
Time = 5.09737e-06

PIMPLE: iteration 1
diagonal:  Solving for rho, Initial residual = 0, Final residual = 0, No Iterations 0
DILUPBiCG:  Solving for Ux, Initial residual = 0.1555535926216039, Final residual = 1.976260055101909e-15, No Iterations 3
DILUPBiCG:  Solving for Uy, Initial residual = 0.1555535928294491, Final residual = 8.093039878545514e-16, No Iterations 3
DILUPBiCG:  Solving for Uz, Initial residual = 0.04421327120815034, Final residual = 3.683649045191173e-16, No Iterations 3
DILUPBiCG:  Solving for e, Initial residual = 0.04185223920889682, Final residual = 1.034679456111188e-16, No Iterations 3
DILUPBiCG:  Solving for p, Initial residual = 0.04418267830538454, Final residual = 4.526148715038798e-06, No Iterations 1
diagonal:  Solving for rho, Initial residual = 0, Final residual = 0, No Iterations 0
time step continuity errors : sum local = 1.133463574953937e-11, global = 1.099356637711501e-11, cumulative = 2.464080721028962e-11
DILUPBiCG:  Solving for p, Initial residual = 8.715114439133295e-06, Final residual = 1.700804163034889e-16, No Iterations 3
diagonal:  Solving for rho, Initial residual = 0, Final residual = 0, No Iterations 0
time step continuity errors : sum local = 2.968161603756474e-16, global = 2.323708909390626e-16, cumulative = 2.464103958118056e-11
DILUPBiCG:  Solving for k, Initial residual = 0.09825486085969969, Final residual = 2.190024232725433e-16, No Iterations 3
ExecutionTime = 57.89 s  ClockTime = 176 s

ORIG_COMP_STEP = 1.840334698999982
ORIG_IO_STEP = 3.034744377999999
Courant Number mean: 4.136192960925221e-08 max: 0.01810325950709162
deltaT = 1.02067469997853e-06
Time = 6.11805e-06

PIMPLE: iteration 1
diagonal:  Solving for rho, Initial residual = 0, Final residual = 0, No Iterations 0
DILUPBiCG:  Solving for Ux, Initial residual = 0.154642727990933, Final residual = 1.519989499000904e-14, No Iterations 3
DILUPBiCG:  Solving for Uy, Initial residual = 0.1546427286817901, Final residual = 5.98281165555599e-15, No Iterations 3
DILUPBiCG:  Solving for Uz, Initial residual = 0.04382537652285104, Final residual = 2.615109425337101e-15, No Iterations 3
DILUPBiCG:  Solving for e, Initial residual = 0.04121618930412507, Final residual = 5.920928103249696e-16, No Iterations 3
DILUPBiCG:  Solving for p, Initial residual = 0.04386342399469245, Final residual = 6.943368102620589e-06, No Iterations 1
diagonal:  Solving for rho, Initial residual = 0, Final residual = 0, No Iterations 0
time step continuity errors : sum local = 2.063381703883361e-11, global = 1.972944791762639e-11, cumulative = 4.437048749880695e-11
DILUPBiCG:  Solving for p, Initial residual = 1.349599938357929e-05, Final residual = 8.697457199069368e-16, No Iterations 3
diagonal:  Solving for rho, Initial residual = 0, Final residual = 0, No Iterations 0
time step continuity errors : sum local = 1.847754464261235e-16, global = -4.179832190055491e-17, cumulative = 4.437044570048504e-11
DILUPBiCG:  Solving for k, Initial residual = 0.09798021290242168, Final residual = 1.334110053663486e-15, No Iterations 3
ExecutionTime = 59.04 s  ClockTime = 180 s

ORIG_COMP_STEP = 1.071500700000001
ORIG_IO_STEP = 4.325429756000005
Courant Number mean: 5.224846453744724e-08 max: 0.02226018108210502
deltaT = 1.224809639974236e-06
Time = 7.34286e-06

PIMPLE: iteration 1
diagonal:  Solving for rho, Initial residual = 0, Final residual = 0, No Iterations 0
[...]
ExecutionTime = 1652.57 s  ClockTime = 9852 s

ORIG_COMP_STEP = 24.84219384800053
ORIG_IO_STEP = 84.4942287369995
Courant Number mean: 4.344775034985993e-06 max: 0.2001639826106819
deltaT = 2.740314342887365e-06
Time = 0.000170553

PIMPLE: iteration 1
diagonal:  Solving for rho, Initial residual = 0, Final residual = 0, No Iterations 0
DILUPBiCG:  Solving for Ux, Initial residual = 0.0163438386973272, Final residual = 2.46219078618425e-13, No Iterations 5
DILUPBiCG:  Solving for Uy, Initial residual = 0.01634419011544747, Final residual = 1.550275441483071e-13, No Iterations 5
DILUPBiCG:  Solving for Uz, Initial residual = 0.00807294260170221, Final residual = 1.544313843319986e-13, No Iterations 5
DILUPBiCG:  Solving for e, Initial residual = 0.01129462436052394, Final residual = 3.566770460294127e-13, No Iterations 4
DILUPBiCG:  Solving for p, Initial residual = 0.01468671896019867, Final residual = 1.859862193994012e-05, No Iterations 1
diagonal:  Solving for rho, Initial residual = 0, Final residual = 0, No Iterations 0
time step continuity errors : sum local = 1.516664842338203e-09, global = -3.186445928389241e-10, cumulative = -6.290101215254732e-09
DILUPBiCG:  Solving for p, Initial residual = 0.0001141889357881865, Final residual = 5.890391349239018e-13, No Iterations 4
diagonal:  Solving for rho, Initial residual = 0, Final residual = 0, No Iterations 0
time step continuity errors : sum local = 2.114141414526695e-16, global = 2.844732965238675e-17, cumulative = -6.290101186807403e-09
DILUPBiCG:  Solving for k, Initial residual = 0.009102330093723719, Final residual = 8.441846816490268e-15, No Iterations 6
ExecutionTime = 1664.6 s  ClockTime = 9954 s

ORIG_COMP_STEP = 11.24994296400109
ORIG_IO_STEP = 120.7986039510015
Courant Number mean: 4.447027702022709e-06 max: 0.1996630884097712
deltaT = 2.744938350611274e-06
Time = 0.000173298

PIMPLE: iteration 1
diagonal:  Solving for rho, Initial residual = 0, Final residual = 0, No Iterations 0
DILUPBiCG:  Solving for Ux, Initial residual = 0.01620156837314986, Final residual = 2.399571376816454e-13, No Iterations 5
DILUPBiCG:  Solving for Uy, Initial residual = 0.01620186756789853, Final residual = 1.215184242438446e-13, No Iterations 5
DILUPBiCG:  Solving for Uz, Initial residual = 0.008009340549455724, Final residual = 1.519268253688087e-13, No Iterations 5
DILUPBiCG:  Solving for e, Initial residual = 0.01123664345905935, Final residual = 3.35083507968764e-13, No Iterations 4
DILUPBiCG:  Solving for p, Initial residual = 0.01463258314341738, Final residual = 1.880220196597302e-05, No Iterations 1
diagonal:  Solving for rho, Initial residual = 0, Final residual = 0, No Iterations 0
time step continuity errors : sum local = 1.560478608915316e-09, global = -3.320235415060501e-10, cumulative = -6.622124728313452e-09
DILUPBiCG:  Solving for p, Initial residual = 9.909390500898852e-05, Final residual = 6.229515343217452e-13, No Iterations 4
diagonal:  Solving for rho, Initial residual = 0, Final residual = 0, No Iterations 0
time step continuity errors : sum local = 2.156378344117584e-16, global = 3.423629642371742e-17, cumulative = -6.622124694077156e-09
DILUPBiCG:  Solving for k, Initial residual = 0.009159515587302746, Final residual = 5.110996751868321e-15, No Iterations 6
ExecutionTime = 1670.79 s  ClockTime = 10095 s

ORIG_COMP_STEP = 4.957348192001518
ORIG_IO_STEP = 66.31694249000066
Courant Number mean: 4.562632390548652e-06 max: 0.1995656562042653
deltaT = 2.750912559625671e-06
Time = 0.000176049

PIMPLE: iteration 1
diagonal:  Solving for rho, Initial residual = 0, Final residual = 0, No Iterations 0
DILUPBiCG:  Solving for Ux, Initial residual = 0.01607316777085151, Final residual = 2.36565975339813e-13, No Iterations 5
DILUPBiCG:  Solving for Uy, Initial residual = 0.01607360210108029, Final residual = 1.019777323180284e-13, No Iterations 5
DILUPBiCG:  Solving for Uz, Initial residual = 0.007963001403890949, Final residual = 1.505431232278439e-13, No Iterations 5
DILUPBiCG:  Solving for e, Initial residual = 0.01117248889082759, Final residual = 3.186947411917225e-13, No Iterations 4
DILUPBiCG:  Solving for p, Initial residual = 0.01458057239930404, Final residual = 1.936856317049083e-05, No Iterations 1
diagonal:  Solving for rho, Initial residual = 0, Final residual = 0, No Iterations 0
time step continuity errors : sum local = 1.635708641203593e-09, global = -3.696311349443133e-10, cumulative = -6.991755829021469e-09
DILUPBiCG:  Solving for p, Initial residual = 0.0001030185772019267, Final residual = 7.87183381279961e-13, No Iterations 4
diagonal:  Solving for rho, Initial residual = 0, Final residual = 0, No Iterations 0
time step continuity errors : sum local = 2.293744936402997e-16, global = 2.434224554161453e-18, cumulative = -6.991755826587245e-09
DILUPBiCG:  Solving for k, Initial residual = 0.009187360953897071, Final residual = 5.723021405646007e-14, No Iterations 5
ExecutionTime = 1693.56 s  ClockTime = 10192 s

ORIG_COMP_STEP = 22.20871433899993
ORIG_IO_STEP = 80.72819356500077
Courant Number mean: 4.682346061085652e-06 max: 0.1996186822604843
deltaT = 2.756167437310266e-06
Time = 0.000178805

PIMPLE: iteration 1
diagonal:  Solving for rho, Initial residual = 0, Final residual = 0, No Iterations 0
DILUPBiCG:  Solving for Ux, Initial residual = 0.01592567856942282, Final residual = 2.354172380260438e-13, No Iterations 5
DILUPBiCG:  Solving for Uy, Initial residual = 0.01592635040396863, Final residual = 9.038719499271543e-14, No Iterations 5
DILUPBiCG:  Solving for Uz, Initial residual = 0.007906169205720221, Final residual = 1.472177622026069e-13, No Iterations 5
DILUPBiCG:  Solving for e, Initial residual = 0.01117335580304841, Final residual = 2.995966284160428e-13, No Iterations 4
DILUPBiCG:  Solving for p, Initial residual = 0.01458476544613897, Final residual = 1.930149155795124e-05, No Iterations 1
diagonal:  Solving for rho, Initial residual = 0, Final residual = 0, No Iterations 0
time step continuity errors : sum local = 1.658334237578856e-09, global = -3.455382138379629e-10, cumulative = -7.337294040425207e-09
DILUPBiCG:  Solving for p, Initial residual = 9.774190777251415e-05, Final residual = 5.991682873179448e-13, No Iterations 4
diagonal:  Solving for rho, Initial residual = 0, Final residual = 0, No Iterations 0
time step continuity errors : sum local = 2.265628969556409e-16, global = -7.415838004522489e-17, cumulative = -7.337294114583587e-09
DILUPBiCG:  Solving for k, Initial residual = 0.009190059610287399, Final residual = 2.381813102876701e-13, No Iterations 5
ExecutionTime = 1713.5 s  ClockTime = 10302 s

ORIG_COMP_STEP = 19.22536767900056
ORIG_IO_STEP = 80.39594276299977
Courant Number mean: 4.801642967669409e-06 max: 0.199471697189143
deltaT = 2.763467174690753e-06
Time = 0.000181569

PIMPLE: iteration 1
diagonal:  Solving for rho, Initial residual = 0, Final residual = 0, No Iterations 0
DILUPBiCG:  Solving for Ux, Initial residual = 0.01578047537913102, Final residual = 2.379605045768061e-13, No Iterations 5
DILUPBiCG:  Solving for Uy, Initial residual = 0.01578110951169008, Final residual = 8.397005448022749e-14, No Iterations 5
DILUPBiCG:  Solving for Uz, Initial residual = 0.007827656290692979, Final residual = 1.430028535571619e-13, No Iterations 5
DILUPBiCG:  Solving for e, Initial residual = 0.0112445567304773, Final residual = 3.159692856776983e-13, No Iterations 4
DILUPBiCG:  Solving for p, Initial residual = 0.01459115824123987, Final residual = 1.930425863580437e-05, No Iterations 1
diagonal:  Solving for rho, Initial residual = 0, Final residual = 0, No Iterations 0
time step continuity errors : sum local = 1.686975866446847e-09, global = -3.335750610094289e-10, cumulative = -7.670869175593016e-09
DILUPBiCG:  Solving for p, Initial residual = 0.0001014937864723815, Final residual = 7.117887640552771e-13, No Iterations 4
diagonal:  Solving for rho, Initial residual = 0, Final residual = 0, No Iterations 0
time step continuity errors : sum local = 2.30512230050032e-16, global = -5.257311299899458e-17, cumulative = -7.67086922816613e-09
DILUPBiCG:  Solving for k, Initial residual = 0.009177659364262809, Final residual = 5.092659219422898e-14, No Iterations 5
ExecutionTime = 1723.59 s  ClockTime = 10408 s

ORIG_COMP_STEP = 9.230329801999687
ORIG_IO_STEP = 63.40030621999904
Courant Number mean: 4.925850336859823e-06 max: 0.1990690873824587
deltaT = 2.776390057368844e-06
Time = 0.000184345

PIMPLE: iteration 1
diagonal:  Solving for rho, Initial residual = 0, Final residual = 0, No Iterations 0
DILUPBiCG:  Solving for Ux, Initial residual = 0.01565946023096838, Final residual = 2.462900340514379e-13, No Iterations 5
DILUPBiCG:  Solving for Uy, Initial residual = 0.01565974308717415, Final residual = 8.049283699280085e-14, No Iterations 5
DILUPBiCG:  Solving for Uz, Initial residual = 0.007789133976899993, Final residual = 1.403303546129558e-13, No Iterations 5
DILUPBiCG:  Solving for e, Initial residual = 0.01121967028823516, Final residual = 3.323161975845172e-13, No Iterations 4
DILUPBiCG:  Solving for p, Initial residual = 0.01452377163954162, Final residual = 1.950395997226909e-05, No Iterations 1
diagonal:  Solving for rho, Initial residual = 0, Final residual = 0, No Iterations 0
time step continuity errors : sum local = 1.733271666176473e-09, global = -3.365572246407646e-10, cumulative = -8.007426452806895e-09
DILUPBiCG:  Solving for p, Initial residual = 0.0001005750747925813, Final residual = 5.841369344070643e-13, No Iterations 4
diagonal:  Solving for rho, Initial residual = 0, Final residual = 0, No Iterations 0
time step continuity errors : sum local = 2.248138282016072e-16, global = 7.340367189292946e-17, cumulative = -8.007426379403223e-09
DILUPBiCG:  Solving for k, Initial residual = 0.009161489428395144, Final residual = 3.421261827061829e-14, No Iterations 5
ExecutionTime = 1734.03 s  ClockTime = 10491 s

ORIG_COMP_STEP = 9.81449695000083
ORIG_IO_STEP = 68.10536163800134
Courant Number mean: 5.062515428351565e-06 max: 0.1984612049554698
deltaT = 2.797917162693624e-06
Time = 0.000187143

PIMPLE: iteration 1
diagonal:  Solving for rho, Initial residual = 0, Final residual = 0, No Iterations 0
DILUPBiCG:  Solving for Ux, Initial residual = 0.0156207531084825, Final residual = 2.611054938554662e-13, No Iterations 5
DILUPBiCG:  Solving for Uy, Initial residual = 0.01562098928094299, Final residual = 7.94928371365199e-14, No Iterations 5
DILUPBiCG:  Solving for Uz, Initial residual = 0.007791916319144315, Final residual = 1.402971233851016e-13, No Iterations 5
DILUPBiCG:  Solving for e, Initial residual = 0.01125099034494874, Final residual = 1.703683352527485e-14, No Iterations 5
DILUPBiCG:  Solving for p, Initial residual = 0.01463279961863135, Final residual = 1.982659331535852e-05, No Iterations 1
diagonal:  Solving for rho, Initial residual = 0, Final residual = 0, No Iterations 0
time step continuity errors : sum local = 1.791527875926827e-09, global = -3.356760761156249e-10, cumulative = -8.343102455518848e-09
DILUPBiCG:  Solving for p, Initial residual = 9.954631171587344e-05, Final residual = 6.26876952068091e-13, No Iterations 4
diagonal:  Solving for rho, Initial residual = 0, Final residual = 0, No Iterations 0
time step continuity errors : sum local = 2.235706968860839e-16, global = -4.147651486738327e-17, cumulative = -8.343102496995363e-09
DILUPBiCG:  Solving for k, Initial residual = 0.009180319781647859, Final residual = 2.017101902426723e-14, No Iterations 5
ExecutionTime = 1746.5 s  ClockTime = 10587 s

ORIG_COMP_STEP = 11.7672371489989
ORIG_IO_STEP = 81.0893201050003
Courant Number mean: 5.217998782517983e-06 max: 0.2007219736781751
deltaT = 2.787853378902714e-06
Time = 0.000189931

PIMPLE: iteration 1
diagonal:  Solving for rho, Initial residual = 0, Final residual = 0, No Iterations 0
DILUPBiCG:  Solving for Ux, Initial residual = 0.01545010613359193, Final residual = 2.59374657095881e-13, No Iterations 5
DILUPBiCG:  Solving for Uy, Initial residual = 0.01545036316378858, Final residual = 7.44409744731958e-14, No Iterations 5
DILUPBiCG:  Solving for Uz, Initial residual = 0.007701511253145834, Final residual = 1.334707763215462e-13, No Iterations 5
DILUPBiCG:  Solving for e, Initial residual = 0.01123770990541973, Final residual = 1.686258835790649e-14, No Iterations 5
DILUPBiCG:  Solving for p, Initial residual = 0.0145324852046861, Final residual = 1.920726593420232e-05, No Iterations 1
diagonal:  Solving for rho, Initial residual = 0, Final residual = 0, No Iterations 0
time step continuity errors : sum local = 1.764424407263556e-09, global = -2.871703022005343e-10, cumulative = -8.630272799195897e-09
DILUPBiCG:  Solving for p, Initial residual = 0.0001016031330325197, Final residual = 8.931142026571556e-13, No Iterations 4
diagonal:  Solving for rho, Initial residual = 0, Final residual = 0, No Iterations 0
time step continuity errors : sum local = 2.450217997110889e-16, global = -4.63982878854201e-18, cumulative = -8.630272803835725e-09
DILUPBiCG:  Solving for k, Initial residual = 0.009121834490012042, Final residual = 4.506152996279294e-15, No Iterations 5
ExecutionTime = 1752.13 s  ClockTime = 10686 s

ORIG_COMP_STEP = 4.765040188000057
ORIG_IO_STEP = 82.92077766500006
Courant Number mean: 5.31530742836957e-06 max: 0.2018830956080456
deltaT = 2.761849247958131e-06
Time = 0.000192693

PIMPLE: iteration 1
diagonal:  Solving for rho, Initial residual = 0, Final residual = 0, No Iterations 0
DILUPBiCG:  Solving for Ux, Initial residual = 0.01520715394741337, Final residual = 2.439997218663939e-13, No Iterations 5
DILUPBiCG:  Solving for Uy, Initial residual = 0.01520732696564843, Final residual = 6.738945055863881e-14, No Iterations 5
DILUPBiCG:  Solving for Uz, Initial residual = 0.007565955663416583, Final residual = 1.22709417978958e-13, No Iterations 5
DILUPBiCG:  Solving for e, Initial residual = 0.01110185321514755, Final residual = 1.435623101751621e-14, No Iterations 5
DILUPBiCG:  Solving for p, Initial residual = 0.01439977610567778, Final residual = 1.890246469901611e-05, No Iterations 1
diagonal:  Solving for rho, Initial residual = 0, Final residual = 0, No Iterations 0
time step continuity errors : sum local = 1.764730959924811e-09, global = -2.801127219331456e-10, cumulative = -8.91038552576887e-09
DILUPBiCG:  Solving for p, Initial residual = 9.454654177376719e-05, Final residual = 7.714125174297791e-15, No Iterations 5
diagonal:  Solving for rho, Initial residual = 0, Final residual = 0, No Iterations 0
time step continuity errors : sum local = 1.62382227493949e-16, global = 1.02988407598862e-17, cumulative = -8.91038551547003e-09
DILUPBiCG:  Solving for k, Initial residual = 0.009042757044416799, Final residual = 7.568447505307278e-15, No Iterations 5
ExecutionTime = 1762.37 s  ClockTime = 10787 s

ORIG_COMP_STEP = 9.451032700000724
ORIG_IO_STEP = 87.76237064700035
Courant Number mean: 5.378499968166592e-06 max: 0.2016319517541855
deltaT = 2.739495624508119e-06
Time = 0.000195432

PIMPLE: iteration 1
diagonal:  Solving for rho, Initial residual = 0, Final residual = 0, No Iterations 0
DILUPBiCG:  Solving for Ux, Initial residual = 0.0149685985962587, Final residual = 2.274332150072104e-13, No Iterations 5
DILUPBiCG:  Solving for Uy, Initial residual = 0.01496868184074544, Final residual = 6.259516595067695e-14, No Iterations 5
DILUPBiCG:  Solving for Uz, Initial residual = 0.007423373242326195, Final residual = 1.130328917979216e-13, No Iterations 5
DILUPBiCG:  Solving for e, Initial residual = 0.01099580650453263, Final residual = 1.086894477142299e-14, No Iterations 5
DILUPBiCG:  Solving for p, Initial residual = 0.01416638262695442, Final residual = 1.832118295253668e-05, No Iterations 1
diagonal:  Solving for rho, Initial residual = 0, Final residual = 0, No Iterations 0
time step continuity errors : sum local = 1.738013260544418e-09, global = -2.762108040806833e-10, cumulative = -9.186596319550713e-09
DILUPBiCG:  Solving for p, Initial residual = 9.860075566158243e-05, Final residual = 5.994914071862879e-15, No Iterations 5
diagonal:  Solving for rho, Initial residual = 0, Final residual = 0, No Iterations 0
time step continuity errors : sum local = 1.682716080799377e-16, global = 5.297932376281591e-17, cumulative = -9.18659626657139e-09
DILUPBiCG:  Solving for k, Initial residual = 0.008987804411631498, Final residual = 3.893560491391325e-13, No Iterations 5
ExecutionTime = 1796.72 s  ClockTime = 10910 s

ORIG_COMP_STEP = 33.69855133400051
ORIG_IO_STEP = 72.79337671800022
Courant Number mean: 5.445359411586422e-06 max: 0.2007903020396404
deltaT = 2.728713086917186e-06
Time = 0.000198161

PIMPLE: iteration 1
diagonal:  Solving for rho, Initial residual = 0, Final residual = 0, No Iterations 0
DILUPBiCG:  Solving for Ux, Initial residual = 0.01477957850505952, Final residual = 2.170100815403518e-13, No Iterations 5
DILUPBiCG:  Solving for Uy, Initial residual = 0.01477938429807256, Final residual = 6.014822464713401e-14, No Iterations 5
DILUPBiCG:  Solving for Uz, Initial residual = 0.007326592758730842, Final residual = 1.067675448648986e-13, No Iterations 5
DILUPBiCG:  Solving for e, Initial residual = 0.01088029960639584, Final residual = 2.949437000921129e-13, No Iterations 5
DILUPBiCG:  Solving for p, Initial residual = 0.01402432568645393, Final residual = 1.811263208720017e-05, No Iterations 1
diagonal:  Solving for rho, Initial residual = 0, Final residual = 0, No Iterations 0
time step continuity errors : sum local = 1.74581426825264e-09, global = -2.840878435452434e-10, cumulative = -9.470684110116633e-09
DILUPBiCG:  Solving for p, Initial residual = 9.156040789294466e-05, Final residual = 7.54671591894329e-15, No Iterations 5
diagonal:  Solving for rho, Initial residual = 0, Final residual = 0, No Iterations 0
time step continuity errors : sum local = 1.609231192437347e-16, global = 1.834612065235019e-17, cumulative = -9.470684091770514e-09
DILUPBiCG:  Solving for k, Initial residual = 0.008971466898163452, Final residual = 2.011799526409989e-16, No Iterations 6
ExecutionTime = 1826.46 s  ClockTime = 11025 s

ORIG_COMP_STEP = 29.13453957599995
ORIG_IO_STEP = 74.50997030599865
Courant Number mean: 5.534900550850835e-06 max: 0.2003300198943525
deltaT = 2.724217856471243e-06
Time = 0.000200885

PIMPLE: iteration 1
diagonal:  Solving for rho, Initial residual = 0, Final residual = 0, No Iterations 0
DILUPBiCG:  Solving for Ux, Initial residual = 0.01465020583151914, Final residual = 2.116701434932656e-13, No Iterations 5
DILUPBiCG:  Solving for Uy, Initial residual = 0.01464993203565881, Final residual = 5.867917538622138e-14, No Iterations 5
DILUPBiCG:  Solving for Uz, Initial residual = 0.007274613824788951, Final residual = 1.034880070201375e-13, No Iterations 5
DILUPBiCG:  Solving for e, Initial residual = 0.01085752138961132, Final residual = 1.129313317138943e-14, No Iterations 5
DILUPBiCG:  Solving for p, Initial residual = 0.01395776034106321, Final residual = 1.81279856594107e-05, No Iterations 1
diagonal:  Solving for rho, Initial residual = 0, Final residual = 0, No Iterations 0
time step continuity errors : sum local = 1.77519972964263e-09, global = -2.931300516067535e-10, cumulative = -9.763814143377268e-09
DILUPBiCG:  Solving for p, Initial residual = 9.118259386710613e-05, Final residual = 5.374720547848633e-15, No Iterations 5
diagonal:  Solving for rho, Initial residual = 0, Final residual = 0, No Iterations 0
time step continuity errors : sum local = 1.841431098288907e-16, global = 1.075168420048417e-16, cumulative = -9.763814035860426e-09
DILUPBiCG:  Solving for k, Initial residual = 0.008982776466656036, Final residual = 2.789451251345686e-13, No Iterations 5
ExecutionTime = 1840.44 s  ClockTime = 11127 s

ORIG_COMP_STEP = 13.21888482800023
ORIG_IO_STEP = 100.5320796289998
End

ORIG_IO_TIME = 7735.681808094955
ORIG_COMP_TIME = 743.6173441225352
Finalising parallel run
