/*---------------------------------------------------------------------------*\
| =========                 |                                                 |
| \\      /  F ield         | OpenFOAM: The Open Source CFD Toolbox           |
|  \\    /   O peration     | Version:  v1912                                 |
|   \\  /    A nd           | Website:  www.openfoam.com                      |
|    \\/     M anipulation  |                                                 |
\*---------------------------------------------------------------------------*/
Build  : _f3950763fe-20191219 OPENFOAM=1912
Arch   : "LSB;label=32;scalar=64"
Exec   : rhoPimpleAPIO_METRICS -parallel
Date   : Oct 27 2020
Time   : 14:33:49
Host   : r36c3t3n4
PID    : 74304
I/O    : uncollated
Case   : /lustre/cray/ws9/2/ws/hpcmcast-ashee2/HAWK/apio_64M/1024
nProcs : 1024
Hosts  :
(
    (r36c3t3n4 128)
    (r36c3t4n1 128)
    (r36c3t4n2 128)
    (r36c3t4n3 128)
    (r36c3t4n4 128)
    (r36c3t5n1 128)
    (r36c3t5n2 128)
    (r36c3t5n3 128)
)
Pstream initialized with:
    floatTransfer      : 0
    nProcsSimpleSum    : 0
    commsType          : nonBlocking
    polling iterations : 0
trapFpe: Floating point exception trapping enabled (FOAM_SIGFPE).
fileModificationChecking : Monitoring run-time modified files using timeStampMaster (fileModificationSkew 10)
allowSystemOperations : Allowing user-supplied system call operations

// * * * * * * * * * * * * * * * * * * * * * * * * * * * * * * * * * * * * * //
Create time

Create mesh for time = 0


PIMPLE: Operating solver in PISO mode

Reading thermophysical properties

Selecting thermodynamics package 
{
    type            hePsiThermo;
    mixture         pureMixture;
    transport       const;
    thermo          eConst;
    equationOfState perfectGas;
    specie          specie;
    energy          sensibleInternalEnergy;
}

Reading field U

Reading/calculating face flux field phi

--> FOAM Warning : 
    From function Foam::pressureControl::pressureControl(const volScalarField&, const volScalarField&, const Foam::dictionary&, bool)
    in file cfdTools/general/pressureControl/pressureControl.C at line 123
    Reading "/lustre/cray/ws9/2/ws/hpcmcast-ashee2/HAWK/apio_64M/1024/system/fvSolution.PIMPLE"
    'rhoMax' specified rather than 'pMax' or 'pMaxFactor'
    This is supported for backward-compatibility but 'pMax' or 'pMaxFactor' are more reliable.
--> FOAM Warning : 
    From function Foam::pressureControl::pressureControl(const volScalarField&, const volScalarField&, const Foam::dictionary&, bool)
    in file cfdTools/general/pressureControl/pressureControl.C at line 178
    Reading "/lustre/cray/ws9/2/ws/hpcmcast-ashee2/HAWK/apio_64M/1024/system/fvSolution.PIMPLE"
    'rhoMin' specified rather than 'pMin' or 'pMinFactor'
    This is supported for backward-compatibility but 'pMin' or 'pMinFactor' are more reliable.
pressureControl
    pMax 1726187.557059955
    pMin 4747.015781914877

Creating turbulence model

Selecting turbulence model type LES
Selecting LES turbulence model kEqn
Selecting LES delta type cubeRootVol
LES
{
    LESModel        kEqn;
    turbulence      on;
    printCoeffs     on;
    delta           cubeRootVol;
    cubeRootVolCoeffs
    {
        deltaCoeff      1;
    }
    PrandtlCoeffs
    {
        delta           cubeRootVol;
        cubeRootVolCoeffs
        {
            deltaCoeff      1;
        }
        smoothCoeffs
        {
            delta           cubeRootVol;
            cubeRootVolCoeffs
            {
                deltaCoeff      1;
            }
            maxDeltaRatio   1.1;
        }
        Cdelta          0.158;
    }
    vanDriestCoeffs
    {
        delta           cubeRootVol;
        cubeRootVolCoeffs
        {
            deltaCoeff      1;
        }
        smoothCoeffs
        {
            delta           cubeRootVol;
            cubeRootVolCoeffs
            {
                deltaCoeff      1;
            }
            maxDeltaRatio   1.1;
        }
        Aplus           26;
        Cdelta          0.158;
    }
    smoothCoeffs
    {
        delta           cubeRootVol;
        cubeRootVolCoeffs
        {
            deltaCoeff      1;
        }
        maxDeltaRatio   1.1;
    }
    Ce              1.048;
    Ck              0.094;
}

Creating field dpdt

Creating field kinetic energy K

No MRF models present

APIO_procNo = 80
APIO_procNo = 81
APIO_procNo = 82
writeThread 82 on CPU 210
APIO_procNo = 83
APIO_procNo = 84
APIO_procNo = 85
APIO_procNo = 86
APIO_procNo = 87
APIO_procNo = 88
writeThread 88 on CPU 216
APIO_procNo = 89
APIO_procNo = 90
APIO_procNo = 91
APIO_procNo = 92
writeThread 92 on CPU 220
APIO_procNo = 93
APIO_procNo = 94
APIO_procNo = 95
APIO_procNo = 96
APIO_procNo = 97
APIO_procNo = 98
APIO_procNo = 99
APIO_procNo = 100
writeThread 100 on CPU 228
APIO_procNo = 101
writeThread 101 on CPU 229
APIO_procNo = 102
writeThread 102 on CPU 230
APIO_procNo = 103
writeThread 103 on CPU 231
APIO_procNo = 104
writeThread 104 on CPU 232
APIO_procNo = 105
APIO_procNo = 106
writeThread 106 on CPU 234
APIO_procNo = 107
writeThread 107 on CPU 235
APIO_procNo = 108
APIO_procNo = 109
writeThread 109 on CPU 237
APIO_procNo = 110
writeThread 110 on CPU 238
APIO_procNo = 111
writeThread 111 on CPU 239
APIO_procNo = 112
writeThread 112 on CPU 240
APIO_procNo = 113
writeThread 113 on CPU 241
APIO_procNo = 114
writeThread 114 on CPU 242
APIO_procNo = 115
writeThread 115 on CPU 243
APIO_procNo = 116
writeThread 116 on CPU 244
APIO_procNo = 117
writeThread 117 on CPU 245
APIO_procNo = 118
writeThread 118 on CPU 246
APIO_procNo = 119
writeThread 119 on CPU 247
APIO_procNo = 120
writeThread 120 on CPU 248
APIO_procNo = 121
APIO_procNo = 122
writeThread 122 on CPU 250
APIO_procNo = 123
writeThread 123 on CPU 251
APIO_procNo = 124
writeThread 124 on CPU 252
APIO_procNo = 125
writeThread 125 on CPU 253
APIO_procNo = 126
writeThread 126 on CPU 254
APIO_procNo = 127
writeThread 127 on CPU 255
No finite volume options present
APIO_procNo = 0
APIO_masterNo = 0
writeThread 0 on CPU 128
APIO_procNo = 1
writeThread 1 on CPU 129
APIO_procNo = 2
writeThread 2 on CPU 130
APIO_procNo = 3
writeThread 3 on CPU 131
APIO_procNo = 4
writeThread 4 on CPU 132
APIO_procNo = 5
writeThread 5 on CPU 133
APIO_procNo = 6
writeThread 6 on CPU 134
APIO_procNo = 7
writeThread 7 on CPU 135
APIO_procNo = 8
writeThread 8 on CPU 136
APIO_procNo = 9
writeThread 9 on CPU 137
APIO_procNo = 10
writeThread 10 on CPU 138
APIO_procNo = 11
writeThread 11 on CPU 139
APIO_procNo = 12
writeThread 12 on CPU 140
APIO_procNo = 13
writeThread 13 on CPU 141
APIO_procNo = 14
writeThread 14 on CPU 142
APIO_procNo = 15
writeThread 15 on CPU 143
APIO_procNo = 16
writeThread 16 on CPU 144
APIO_procNo = 17
writeThread 17 on CPU 145
APIO_procNo = 18
writeThread 18 on CPU 146
APIO_procNo = 19
writeThread 19 on CPU 147
APIO_procNo = 20
writeThread 20 on CPU 148
APIO_procNo = 21
writeThread 21 on CPU 149
APIO_procNo = 22
writeThread 22 on CPU 150
APIO_procNo = 23
writeThread 23 on CPU 151
APIO_procNo = 24
writeThread 24 on CPU 152
APIO_procNo = 25
writeThread 25 on CPU 153
APIO_procNo = 26
writeThread 26 on CPU 154
APIO_procNo = 27
writeThread 27 on CPU 155
APIO_procNo = 28
writeThread 28 on CPU 156
APIO_procNo = 29
writeThread 29 on CPU 157
APIO_procNo = 30
writeThread 30 on CPU 158
APIO_procNo = 31
writeThread 31 on CPU 159
APIO_procNo = 32
writeThread 32 on CPU 160
APIO_procNo = 33
writeThread 33 on CPU 161
APIO_procNo = 34
writeThread 34 on CPU 162
APIO_procNo = 35
writeThread 35 on CPU 163
APIO_procNo = 36
writeThread 36 on CPU 164
APIO_procNo = 37
writeThread 37 on CPU 165
APIO_procNo = 38
writeThread 38 on CPU 166
APIO_procNo = 39
writeThread 39 on CPU 167
APIO_procNo = 40
writeThread 40 on CPU 168
APIO_procNo = 41
writeThread 41 on CPU 169
APIO_procNo = 42
writeThread 42 on CPU 170
APIO_procNo = 43
writeThread 43 on CPU 171
APIO_procNo = 44
writeThread 44 on CPU 172
APIO_procNo = 45
writeThread 45 on CPU 173
APIO_procNo = 46
writeThread 46 on CPU 174
APIO_procNo = 47
writeThread 47 on CPU 175
APIO_procNo = 48
writeThread 48 on CPU 176
APIO_procNo = 49
writeThread 49 on CPU 177
APIO_procNo = 50
writeThread 50 on CPU 178
APIO_procNo = 51
writeThread 51 on CPU 179
APIO_procNo = 52
writeThread 52 on CPU 180
APIO_procNo = 53
writeThread 53 on CPU 181
APIO_procNo = 54
writeThread 54 on CPU 182
APIO_procNo = 55
writeThread 55 on CPU 183
APIO_procNo = 56
writeThread 56 on CPU 184
APIO_procNo = 57
writeThread 57 on CPU 185
APIO_procNo = 58
writeThread 58 on CPU 186
APIO_procNo = 59
writeThread 59 on CPU 187
APIO_procNo = 60
writeThread 60 on CPU 188
APIO_procNo = 61
writeThread 61 on CPU 189
APIO_procNo = 62
writeThread 62 on CPU 190
APIO_procNo = 63
writeThread 63 on CPU 191
APIO_procNo = 64
writeThread 64 on CPU 192
APIO_procNo = 65
writeThread 65 on CPU 193
APIO_procNo = 66
writeThread 66 on CPU 194
APIO_procNo = 67
writeThread 67 on CPU 195
APIO_procNo = 68
writeThread 68 on CPU 196
APIO_procNo = 69
writeThread 69 on CPU 197
APIO_procNo = 70
writeThread 70 on CPU 198
APIO_procNo = 71
writeThread 71 on CPU 199
APIO_procNo = 72
writeThread 72 on CPU 200
APIO_procNo = 73
writeThread 73 on CPU 201
APIO_procNo = 74
writeThread 74 on CPU 202
APIO_procNo = 75
writeThread 75 on CPU 203
APIO_procNo = 76
writeThread 76 on CPU 204
APIO_procNo = 77
writeThread 77 on CPU 205
APIO_procNo = 78
writeThread 78 on CPU 206
APIO_procNo = 79
writeThread 79 on CPU 207
writeThread 80 on CPU 208
writeThread 81 on CPU 209
writeThread 84 on CPU 212
writeThread 85 on CPU 213
writeThread 86 on CPU 214
writeThread 87 on CPU 215
writeThread 89 on CPU 217
writeThread 90 on CPU 218
writeThread 91 on CPU 219
writeThread 93 on CPU 221
writeThread 94 on CPU 222
writeThread 95 on CPU 223
writeThread 96 on CPU 224
writeThread 97 on CPU 225
writeThread 98 on CPU 226
writeThread 99 on CPU 227
writeThread 108 on CPU 236
writeThread 83 on CPU 211
writeThread 105 on CPU 233
APIO_procNo = 896
writeThread 896 on CPU 128
APIO_procNo = 512
APIO_procNo = 384
writeThread 384 on CPU 128
APIO_procNo = 640
writeThread 640 on CPU 128
APIO_procNo = 128
writeThread 128 on CPU 128
APIO_procNo = 768
APIO_procNo = 129
writeThread 129 on CPU 129
APIO_procNo = 256
writeThread 256 on CPU 128
APIO_procNo = 641
writeThread 641 on CPU 129
APIO_procNo = 897
writeThread 897 on CPU 129
APIO_procNo = 130
writeThread 130 on CPU 130
APIO_procNo = 257
writeThread 257 on CPU 129
APIO_procNo = 513
APIO_procNo = 769
APIO_procNo = 385
writeThread 385 on CPU 129
APIO_procNo = 642
writeThread 642 on CPU 130
APIO_procNo = 898
writeThread 898 on CPU 130
APIO_procNo = 131
writeThread 131 on CPU 131
APIO_procNo = 258
writeThread 258 on CPU 130
APIO_procNo = 514
APIO_procNo = 770
APIO_procNo = 386
writeThread 386 on CPU 130
APIO_procNo = 643
writeThread 643 on CPU 131
APIO_procNo = 899
writeThread 899 on CPU 131
APIO_procNo = 132
writeThread 132 on CPU 132
APIO_procNo = 259
writeThread 259 on CPU 131
APIO_procNo = 515
APIO_procNo = 771
APIO_procNo = 387
writeThread 387 on CPU 131
APIO_procNo = 644
writeThread 644 on CPU 132
APIO_procNo = 900
APIO_procNo = 133
writeThread 133 on CPU 133
APIO_procNo = 260
writeThread 260 on CPU 132
APIO_procNo = 516
APIO_procNo = 772
APIO_procNo = 388
writeThread 388 on CPU 132
APIO_procNo = 645
writeThread 645 on CPU 133
APIO_procNo = 901
APIO_procNo = 134
writeThread 134 on CPU 134
APIO_procNo = 261
writeThread 261 on CPU 133
APIO_procNo = 517
APIO_procNo = 773
APIO_procNo = 389
writeThread 389 on CPU 133
APIO_procNo = 646
writeThread 646 on CPU 134
APIO_procNo = 902
writeThread 902 on CPU 134
APIO_procNo = 135
writeThread 135 on CPU 135
APIO_procNo = 262
writeThread 262 on CPU 134
APIO_procNo = 518
APIO_procNo = 774
APIO_procNo = 390
writeThread 390 on CPU 134
APIO_procNo = 647
writeThread 647 on CPU 135
APIO_procNo = 903
writeThread 903 on CPU 135
APIO_procNo = 136
writeThread 136 on CPU 136
APIO_procNo = 263
writeThread 263 on CPU 135
APIO_procNo = 519
APIO_procNo = 775
APIO_procNo = 391
writeThread 391 on CPU 135
APIO_procNo = 648
APIO_procNo = 904
writeThread 904 on CPU 136
APIO_procNo = 137
writeThread 137 on CPU 137
APIO_procNo = 264
writeThread 264 on CPU 136
APIO_procNo = 520
APIO_procNo = 776
APIO_procNo = 392
APIO_procNo = 649
APIO_procNo = 905
APIO_procNo = 138
writeThread 138 on CPU 138
APIO_procNo = 265
writeThread 265 on CPU 137
APIO_procNo = 521
APIO_procNo = 777
APIO_procNo = 393
writeThread 393 on CPU 137
APIO_procNo = 650
writeThread 650 on CPU 138
APIO_procNo = 906
APIO_procNo = 139
writeThread 139 on CPU 139
APIO_procNo = 778
APIO_procNo = 651
APIO_procNo = 907
writeThread 907 on CPU 139
APIO_procNo = 140
writeThread 140 on CPU 140
APIO_procNo = 266
writeThread 266 on CPU 138
APIO_procNo = 522
APIO_procNo = 779
APIO_procNo = 394
APIO_procNo = 652
writeThread 652 on CPU 140
APIO_procNo = 908
writeThread 908 on CPU 140
APIO_procNo = 141
APIO_procNo = 267
writeThread 267 on CPU 139
APIO_procNo = 523
APIO_procNo = 780
APIO_procNo = 395
APIO_procNo = 653
writeThread 653 on CPU 141
APIO_procNo = 909
writeThread 909 on CPU 141
APIO_procNo = 142
APIO_procNo = 268
writeThread 268 on CPU 140
APIO_procNo = 524
APIO_procNo = 781
APIO_procNo = 396
writeThread 396 on CPU 140
APIO_procNo = 654
writeThread 654 on CPU 142
APIO_procNo = 910
writeThread 910 on CPU 142
APIO_procNo = 143
APIO_procNo = 269
writeThread 269 on CPU 141
APIO_procNo = 525
APIO_procNo = 782
APIO_procNo = 397
writeThread 397 on CPU 141
APIO_procNo = 655
writeThread 655 on CPU 143
APIO_procNo = 911
writeThread 911 on CPU 143
APIO_procNo = 144
APIO_procNo = 270
writeThread 270 on CPU 142
APIO_procNo = 526
APIO_procNo = 783
APIO_procNo = 398
APIO_procNo = 656
APIO_procNo = 912
APIO_procNo = 145
APIO_procNo = 271
APIO_procNo = 527
APIO_procNo = 784
APIO_procNo = 399
APIO_procNo = 657
APIO_procNo = 913
APIO_procNo = 146
APIO_procNo = 272
writeThread 272 on CPU 144
APIO_procNo = 528
APIO_procNo = 785
APIO_procNo = 400
APIO_procNo = 658
APIO_procNo = 914
APIO_procNo = 147
APIO_procNo = 273
writeThread 273 on CPU 145
APIO_procNo = 529
APIO_procNo = 786
APIO_procNo = 401
APIO_procNo = 659
APIO_procNo = 915
APIO_procNo = 148
APIO_procNo = 274
writeThread 274 on CPU 146
APIO_procNo = 530
APIO_procNo = 787
APIO_procNo = 402
APIO_procNo = 660
APIO_procNo = 916
APIO_procNo = 149
APIO_procNo = 275
writeThread 275 on CPU 147
APIO_procNo = 531
APIO_procNo = 788
APIO_procNo = 403
APIO_procNo = 661
APIO_procNo = 917
APIO_procNo = 150
APIO_procNo = 276
writeThread 276 on CPU 148
APIO_procNo = 532
APIO_procNo = 789
APIO_procNo = 404
APIO_procNo = 662
APIO_procNo = 918
APIO_procNo = 151
APIO_procNo = 277
writeThread 277 on CPU 149
APIO_procNo = 533
APIO_procNo = 790
writeThread 790 on CPU 150
APIO_procNo = 405
APIO_procNo = 663
APIO_procNo = 919
APIO_procNo = 152
APIO_procNo = 278
writeThread 278 on CPU 150
APIO_procNo = 534
APIO_procNo = 791
writeThread 791 on CPU 151
APIO_procNo = 406
APIO_procNo = 664
APIO_procNo = 920
APIO_procNo = 153
APIO_procNo = 279
writeThread 279 on CPU 151
APIO_procNo = 535
APIO_procNo = 792
APIO_procNo = 407
APIO_procNo = 665
APIO_procNo = 921
APIO_procNo = 154
APIO_procNo = 280
writeThread 280 on CPU 152
APIO_procNo = 536
APIO_procNo = 793
APIO_procNo = 408
APIO_procNo = 666
APIO_procNo = 922
APIO_procNo = 155
APIO_procNo = 281
writeThread 281 on CPU 153
APIO_procNo = 537
APIO_procNo = 794
APIO_procNo = 409
APIO_procNo = 667
APIO_procNo = 923
APIO_procNo = 156
APIO_procNo = 282
writeThread 282 on CPU 154
APIO_procNo = 538
APIO_procNo = 795
APIO_procNo = 410
APIO_procNo = 668
APIO_procNo = 924
APIO_procNo = 157
APIO_procNo = 283
writeThread 283 on CPU 155
APIO_procNo = 539
APIO_procNo = 796
APIO_procNo = 411
APIO_procNo = 669
APIO_procNo = 925
APIO_procNo = 158
APIO_procNo = 284
writeThread 284 on CPU 156
APIO_procNo = 540
APIO_procNo = 797
APIO_procNo = 412
APIO_procNo = 670
APIO_procNo = 926
APIO_procNo = 159
APIO_procNo = 285
writeThread 285 on CPU 157
APIO_procNo = 541
APIO_procNo = 798
APIO_procNo = 413
APIO_procNo = 671
APIO_procNo = 927
APIO_procNo = 160
APIO_procNo = 286
writeThread 286 on CPU 158
APIO_procNo = 542
APIO_procNo = 799
APIO_procNo = 414
APIO_procNo = 672
APIO_procNo = 928
APIO_procNo = 161
APIO_procNo = 287
writeThread 287 on CPU 159
APIO_procNo = 543
APIO_procNo = 800
writeThread 800 on CPU 160
APIO_procNo = 415
APIO_procNo = 673
APIO_procNo = 929
APIO_procNo = 162
APIO_procNo = 288
writeThread 288 on CPU 160
APIO_procNo = 544
APIO_procNo = 801
writeThread 801 on CPU 161
APIO_procNo = 416
APIO_procNo = 674
APIO_procNo = 930
APIO_procNo = 163
APIO_procNo = 289
writeThread 289 on CPU 161
APIO_procNo = 545
APIO_procNo = 802
writeThread 802 on CPU 162
APIO_procNo = 417
APIO_procNo = 675
APIO_procNo = 931
APIO_procNo = 164
APIO_procNo = 290
writeThread 290 on CPU 162
APIO_procNo = 546
APIO_procNo = 803
writeThread 803 on CPU 163
APIO_procNo = 418
APIO_procNo = 676
APIO_procNo = 932
APIO_procNo = 165
APIO_procNo = 291
writeThread 291 on CPU 163
APIO_procNo = 547
APIO_procNo = 804
APIO_procNo = 419
APIO_procNo = 677
APIO_procNo = 933
APIO_procNo = 166
APIO_procNo = 292
writeThread 292 on CPU 164
APIO_procNo = 548
APIO_procNo = 805
APIO_procNo = 420
APIO_procNo = 678
APIO_procNo = 934
APIO_procNo = 167
APIO_procNo = 293
writeThread 293 on CPU 165
APIO_procNo = 549
APIO_procNo = 806
APIO_procNo = 421
APIO_procNo = 679
APIO_procNo = 935
APIO_procNo = 168
APIO_procNo = 294
writeThread 294 on CPU 166
APIO_procNo = 550
APIO_procNo = 807
APIO_procNo = 422
APIO_procNo = 680
APIO_procNo = 936
APIO_procNo = 169
APIO_procNo = 295
writeThread 295 on CPU 167
APIO_procNo = 551
APIO_procNo = 808
APIO_procNo = 423
APIO_procNo = 681
APIO_procNo = 937
APIO_procNo = 170
writeThread 121 on CPU 249
APIO_procNo = 296
writeThread 296 on CPU 168
APIO_procNo = 552
APIO_procNo = 809
APIO_procNo = 424
APIO_procNo = 682
APIO_procNo = 938
APIO_procNo = 171
APIO_procNo = 297
writeThread 297 on CPU 169
APIO_procNo = 553
APIO_procNo = 810
APIO_procNo = 425
APIO_procNo = 683
APIO_procNo = 939
APIO_procNo = 172
APIO_procNo = 298
writeThread 298 on CPU 170
APIO_procNo = 554
APIO_procNo = 811
APIO_procNo = 426
APIO_procNo = 684
APIO_procNo = 940
APIO_procNo = 173
APIO_procNo = 299
writeThread 299 on CPU 171
APIO_procNo = 555
APIO_procNo = 812
APIO_procNo = 427
APIO_procNo = 685
APIO_procNo = 941
APIO_procNo = 174
APIO_procNo = 300
writeThread 300 on CPU 172
APIO_procNo = 556
APIO_procNo = 813
APIO_procNo = 428
APIO_procNo = 686
APIO_procNo = 942
APIO_procNo = 175
APIO_procNo = 301
writeThread 301 on CPU 173
APIO_procNo = 557
APIO_procNo = 814
APIO_procNo = 429
APIO_procNo = 687
APIO_procNo = 943
APIO_procNo = 176
APIO_procNo = 302
writeThread 302 on CPU 174
APIO_procNo = 558
APIO_procNo = 815
APIO_procNo = 430
APIO_procNo = 688
APIO_procNo = 944
APIO_procNo = 177
APIO_procNo = 303
writeThread 303 on CPU 175
APIO_procNo = 559
APIO_procNo = 816
APIO_procNo = 431
APIO_procNo = 689
APIO_procNo = 945
APIO_procNo = 178
APIO_procNo = 304
writeThread 304 on CPU 176
APIO_procNo = 560
APIO_procNo = 817
APIO_procNo = 432
APIO_procNo = 690
APIO_procNo = 946
APIO_procNo = 179
Courant Number mean: 2.066056443474855e-11 max: 2.085039370078742e-05
APIO_procNo = 305
writeThread 305 on CPU 177
APIO_procNo = 561
writeThread 561 on CPU 177
APIO_procNo = 818
APIO_procNo = 433
APIO_procNo = 691
APIO_procNo = 947
APIO_procNo = 180
APIO_procNo = 306
writeThread 306 on CPU 178
APIO_procNo = 562
writeThread 562 on CPU 178
APIO_procNo = 819
APIO_procNo = 434
APIO_procNo = 692
APIO_procNo = 948
writeThread 948 on CPU 180
APIO_procNo = 181
APIO_procNo = 307
writeThread 307 on CPU 179
APIO_procNo = 563
writeThread 563 on CPU 179
APIO_procNo = 820
writeThread 820 on CPU 180
APIO_procNo = 435
APIO_procNo = 693
APIO_procNo = 949
writeThread 949 on CPU 181
APIO_procNo = 182
APIO_procNo = 308
writeThread 308 on CPU 180
APIO_procNo = 564
APIO_procNo = 821
writeThread 821 on CPU 181
APIO_procNo = 436
APIO_procNo = 694
writeThread 694 on CPU 182
APIO_procNo = 950
writeThread 950 on CPU 182
APIO_procNo = 183
APIO_procNo = 309
writeThread 309 on CPU 181
APIO_procNo = 565
APIO_procNo = 822
writeThread 822 on CPU 182
APIO_procNo = 437
APIO_procNo = 695
writeThread 695 on CPU 183
APIO_procNo = 951
writeThread 951 on CPU 183
APIO_procNo = 184
APIO_procNo = 310
writeThread 310 on CPU 182
APIO_procNo = 566
APIO_procNo = 823
writeThread 823 on CPU 183
APIO_procNo = 438
APIO_procNo = 696
APIO_procNo = 952
APIO_procNo = 185
APIO_procNo = 311
writeThread 311 on CPU 183
APIO_procNo = 567
APIO_procNo = 824
writeThread 824 on CPU 184
APIO_procNo = 439
APIO_procNo = 697
APIO_procNo = 953
writeThread 953 on CPU 185
APIO_procNo = 186
APIO_procNo = 312
writeThread 312 on CPU 184
APIO_procNo = 568
APIO_procNo = 825
writeThread 825 on CPU 185
APIO_procNo = 440
APIO_procNo = 698
APIO_procNo = 954
APIO_procNo = 187
APIO_procNo = 313
writeThread 313 on CPU 185
APIO_procNo = 569
APIO_procNo = 826
writeThread 826 on CPU 186
APIO_procNo = 441
APIO_procNo = 699
APIO_procNo = 955
writeThread 955 on CPU 187
APIO_procNo = 188
writeThread 188 on CPU 188
APIO_procNo = 314
writeThread 314 on CPU 186
APIO_procNo = 570
APIO_procNo = 827
writeThread 827 on CPU 187
APIO_procNo = 442
APIO_procNo = 700
APIO_procNo = 956
writeThread 956 on CPU 188
APIO_procNo = 189
writeThread 189 on CPU 189
APIO_procNo = 315
writeThread 315 on CPU 187
APIO_procNo = 571
APIO_procNo = 828
writeThread 828 on CPU 188
APIO_procNo = 443
APIO_procNo = 701
APIO_procNo = 957
writeThread 957 on CPU 189
APIO_procNo = 190
writeThread 190 on CPU 190
APIO_procNo = 316
writeThread 316 on CPU 188
APIO_procNo = 572
APIO_procNo = 829
writeThread 829 on CPU 189
APIO_procNo = 444
APIO_procNo = 702
APIO_procNo = 958
writeThread 958 on CPU 190
APIO_procNo = 191
writeThread 191 on CPU 191
APIO_procNo = 317
writeThread 317 on CPU 189
APIO_procNo = 573
APIO_procNo = 830
writeThread 830 on CPU 190
APIO_procNo = 445
APIO_procNo = 703
APIO_procNo = 959
writeThread 959 on CPU 191
APIO_procNo = 192
writeThread 192 on CPU 192
APIO_procNo = 318
writeThread 318 on CPU 190
APIO_procNo = 574
APIO_procNo = 831
writeThread 831 on CPU 191
APIO_procNo = 446
APIO_procNo = 704
writeThread 704 on CPU 192
APIO_procNo = 960
APIO_procNo = 193
writeThread 193 on CPU 193
APIO_procNo = 319
writeThread 319 on CPU 191
APIO_procNo = 575
APIO_procNo = 832
writeThread 832 on CPU 192
APIO_procNo = 447
APIO_procNo = 705
writeThread 705 on CPU 193
APIO_procNo = 961
APIO_procNo = 194
writeThread 194 on CPU 194
APIO_procNo = 320
writeThread 320 on CPU 192
APIO_procNo = 576
writeThread 576 on CPU 192
APIO_procNo = 833
writeThread 833 on CPU 193
APIO_procNo = 448
writeThread 448 on CPU 192
APIO_procNo = 706
writeThread 706 on CPU 194
APIO_procNo = 962
APIO_procNo = 195
writeThread 195 on CPU 195
APIO_procNo = 321
writeThread 321 on CPU 193
APIO_procNo = 577
writeThread 577 on CPU 193
APIO_procNo = 834
APIO_procNo = 449
writeThread 449 on CPU 193
APIO_procNo = 707
writeThread 707 on CPU 195
APIO_procNo = 963
APIO_procNo = 196
writeThread 196 on CPU 196
APIO_procNo = 322
writeThread 322 on CPU 194
APIO_procNo = 578
writeThread 578 on CPU 194
APIO_procNo = 835
writeThread 835 on CPU 195
APIO_procNo = 450
writeThread 450 on CPU 194
APIO_procNo = 708
writeThread 708 on CPU 196
APIO_procNo = 964
APIO_procNo = 197
writeThread 197 on CPU 197
APIO_procNo = 323
writeThread 323 on CPU 195
APIO_procNo = 579
writeThread 579 on CPU 195
APIO_procNo = 836
writeThread 836 on CPU 196
APIO_procNo = 451
writeThread 451 on CPU 195
APIO_procNo = 709
writeThread 709 on CPU 197
APIO_procNo = 965
APIO_procNo = 198
writeThread 198 on CPU 198
APIO_procNo = 324
writeThread 324 on CPU 196
APIO_procNo = 580
writeThread 580 on CPU 196
APIO_procNo = 837
writeThread 837 on CPU 197
APIO_procNo = 452
APIO_procNo = 710
writeThread 710 on CPU 198
APIO_procNo = 966
APIO_procNo = 199
writeThread 199 on CPU 199
APIO_procNo = 325
writeThread 325 on CPU 197
APIO_procNo = 581
writeThread 581 on CPU 197
APIO_procNo = 838
writeThread 838 on CPU 198
APIO_procNo = 453
APIO_procNo = 711
writeThread 711 on CPU 199
APIO_procNo = 967
APIO_procNo = 200
writeThread 200 on CPU 200
APIO_procNo = 326
writeThread 326 on CPU 198
APIO_procNo = 582
writeThread 582 on CPU 198
APIO_procNo = 839
writeThread 839 on CPU 199
APIO_procNo = 454
APIO_procNo = 712
APIO_procNo = 968
APIO_procNo = 201
writeThread 201 on CPU 201
APIO_procNo = 327
writeThread 327 on CPU 199
APIO_procNo = 583
writeThread 583 on CPU 199
APIO_procNo = 840
writeThread 840 on CPU 200
APIO_procNo = 455
APIO_procNo = 713
writeThread 713 on CPU 201
APIO_procNo = 969
APIO_procNo = 202
writeThread 202 on CPU 202
APIO_procNo = 328
writeThread 328 on CPU 200
APIO_procNo = 584
writeThread 584 on CPU 200
APIO_procNo = 841
writeThread 841 on CPU 201
APIO_procNo = 456
APIO_procNo = 714
writeThread 714 on CPU 202
APIO_procNo = 970
APIO_procNo = 203
writeThread 203 on CPU 203
APIO_procNo = 329
writeThread 329 on CPU 201
APIO_procNo = 585
writeThread 585 on CPU 201
APIO_procNo = 842
writeThread 842 on CPU 202
APIO_procNo = 457
APIO_procNo = 715
writeThread 715 on CPU 203
APIO_procNo = 971
APIO_procNo = 204
writeThread 204 on CPU 204
APIO_procNo = 330
writeThread 330 on CPU 202
APIO_procNo = 586
writeThread 586 on CPU 202
APIO_procNo = 843
writeThread 843 on CPU 203
APIO_procNo = 458
APIO_procNo = 716
writeThread 716 on CPU 204
APIO_procNo = 972
APIO_procNo = 205
writeThread 205 on CPU 205
APIO_procNo = 331
writeThread 331 on CPU 203
APIO_procNo = 587
writeThread 587 on CPU 203
APIO_procNo = 844
writeThread 844 on CPU 204
APIO_procNo = 459
APIO_procNo = 717
writeThread 717 on CPU 205
APIO_procNo = 973
APIO_procNo = 206
writeThread 206 on CPU 206
APIO_procNo = 332
writeThread 332 on CPU 204
APIO_procNo = 588
writeThread 588 on CPU 204
APIO_procNo = 845
writeThread 845 on CPU 205
APIO_procNo = 460
APIO_procNo = 718
writeThread 718 on CPU 206
APIO_procNo = 974
APIO_procNo = 207
writeThread 207 on CPU 207
APIO_procNo = 333
writeThread 333 on CPU 205
APIO_procNo = 589
writeThread 589 on CPU 205
APIO_procNo = 846
writeThread 846 on CPU 206
APIO_procNo = 461
APIO_procNo = 719
writeThread 719 on CPU 207
APIO_procNo = 975
APIO_procNo = 208
APIO_procNo = 334
writeThread 334 on CPU 206
APIO_procNo = 590
writeThread 590 on CPU 206
APIO_procNo = 847
writeThread 847 on CPU 207
APIO_procNo = 462
APIO_procNo = 720
writeThread 720 on CPU 208
APIO_procNo = 976
APIO_procNo = 209
writeThread 209 on CPU 209
APIO_procNo = 335
writeThread 335 on CPU 207
APIO_procNo = 591
writeThread 591 on CPU 207
APIO_procNo = 848
writeThread 848 on CPU 208
APIO_procNo = 463
APIO_procNo = 721
writeThread 721 on CPU 209
APIO_procNo = 977
APIO_procNo = 210
writeThread 210 on CPU 210
APIO_procNo = 336
writeThread 336 on CPU 208
APIO_procNo = 592
writeThread 592 on CPU 208
APIO_procNo = 849
writeThread 849 on CPU 209
APIO_procNo = 464
writeThread 464 on CPU 208
APIO_procNo = 722
writeThread 722 on CPU 210
APIO_procNo = 978
APIO_procNo = 211
writeThread 211 on CPU 211
APIO_procNo = 337
writeThread 337 on CPU 209
APIO_procNo = 593
writeThread 593 on CPU 209
APIO_procNo = 850
writeThread 850 on CPU 210
APIO_procNo = 465
writeThread 465 on CPU 209
APIO_procNo = 723
writeThread 723 on CPU 211
APIO_procNo = 979
APIO_procNo = 212
writeThread 212 on CPU 212
APIO_procNo = 338
writeThread 338 on CPU 210
APIO_procNo = 594
writeThread 594 on CPU 210
APIO_procNo = 851
writeThread 851 on CPU 211
APIO_procNo = 466
writeThread 466 on CPU 210
APIO_procNo = 724
writeThread 724 on CPU 212
APIO_procNo = 980
APIO_procNo = 213
writeThread 213 on CPU 213
APIO_procNo = 339
writeThread 339 on CPU 211
APIO_procNo = 595
writeThread 595 on CPU 211
APIO_procNo = 852
writeThread 852 on CPU 212
APIO_procNo = 467
writeThread 467 on CPU 211
APIO_procNo = 725
writeThread 725 on CPU 213
APIO_procNo = 981
APIO_procNo = 214
writeThread 214 on CPU 214
APIO_procNo = 340
writeThread 340 on CPU 212
APIO_procNo = 596
writeThread 596 on CPU 212
APIO_procNo = 853
writeThread 853 on CPU 213
APIO_procNo = 468
writeThread 468 on CPU 212
APIO_procNo = 726
writeThread 726 on CPU 214
APIO_procNo = 982
APIO_procNo = 215
writeThread 215 on CPU 215
APIO_procNo = 341
writeThread 341 on CPU 213
APIO_procNo = 597
writeThread 597 on CPU 213
APIO_procNo = 854
writeThread 854 on CPU 214
APIO_procNo = 469
writeThread 469 on CPU 213
APIO_procNo = 727
writeThread 727 on CPU 215
APIO_procNo = 983
APIO_procNo = 216
writeThread 216 on CPU 216
APIO_procNo = 342
writeThread 342 on CPU 214
APIO_procNo = 598
writeThread 598 on CPU 214
APIO_procNo = 855
writeThread 855 on CPU 215
APIO_procNo = 470
writeThread 470 on CPU 214
APIO_procNo = 728
writeThread 728 on CPU 216
APIO_procNo = 984
APIO_procNo = 217
writeThread 217 on CPU 217
APIO_procNo = 343
writeThread 343 on CPU 215
APIO_procNo = 599
writeThread 599 on CPU 215
APIO_procNo = 856
writeThread 856 on CPU 216
APIO_procNo = 471
writeThread 471 on CPU 215
APIO_procNo = 729
writeThread 729 on CPU 217
APIO_procNo = 985
APIO_procNo = 218
writeThread 218 on CPU 218
APIO_procNo = 344
writeThread 344 on CPU 216
APIO_procNo = 600
writeThread 600 on CPU 216
APIO_procNo = 857
writeThread 857 on CPU 217
APIO_procNo = 472
writeThread 472 on CPU 216
APIO_procNo = 730
writeThread 730 on CPU 218
APIO_procNo = 986
APIO_procNo = 219
writeThread 219 on CPU 219
APIO_procNo = 345
writeThread 345 on CPU 217
APIO_procNo = 601
writeThread 601 on CPU 217
APIO_procNo = 858
writeThread 858 on CPU 218
APIO_procNo = 473
writeThread 473 on CPU 217
APIO_procNo = 731
writeThread 731 on CPU 219
APIO_procNo = 987
APIO_procNo = 220
writeThread 220 on CPU 220
APIO_procNo = 346
writeThread 346 on CPU 218
APIO_procNo = 602
writeThread 602 on CPU 218
APIO_procNo = 859
writeThread 859 on CPU 219
APIO_procNo = 474
writeThread 474 on CPU 218
APIO_procNo = 732
writeThread 732 on CPU 220
APIO_procNo = 988
APIO_procNo = 221
APIO_procNo = 347
writeThread 347 on CPU 219
APIO_procNo = 603
writeThread 603 on CPU 219
APIO_procNo = 860
writeThread 860 on CPU 220
APIO_procNo = 475
writeThread 475 on CPU 219
APIO_procNo = 733
writeThread 733 on CPU 221
APIO_procNo = 989
APIO_procNo = 222
writeThread 222 on CPU 222
APIO_procNo = 348
writeThread 348 on CPU 220
APIO_procNo = 604
writeThread 604 on CPU 220
APIO_procNo = 861
writeThread 861 on CPU 221
APIO_procNo = 476
writeThread 476 on CPU 220
APIO_procNo = 734
writeThread 734 on CPU 222
APIO_procNo = 990
APIO_procNo = 223
writeThread 223 on CPU 223
APIO_procNo = 349
writeThread 349 on CPU 221
APIO_procNo = 605
writeThread 605 on CPU 221
APIO_procNo = 862
writeThread 862 on CPU 222
APIO_procNo = 477
writeThread 477 on CPU 221
APIO_procNo = 735
writeThread 735 on CPU 223
APIO_procNo = 991
APIO_procNo = 224
writeThread 224 on CPU 224
APIO_procNo = 350
writeThread 350 on CPU 222
APIO_procNo = 606
writeThread 606 on CPU 222
APIO_procNo = 863
writeThread 863 on CPU 223
APIO_procNo = 478
writeThread 478 on CPU 222
APIO_procNo = 736
writeThread 736 on CPU 224
APIO_procNo = 992
APIO_procNo = 225
writeThread 225 on CPU 225
APIO_procNo = 351
writeThread 351 on CPU 223
APIO_procNo = 607
writeThread 607 on CPU 223
APIO_procNo = 864
writeThread 864 on CPU 224
APIO_procNo = 479
writeThread 479 on CPU 223
APIO_procNo = 737
writeThread 737 on CPU 225
APIO_procNo = 993
APIO_procNo = 226
writeThread 226 on CPU 226
APIO_procNo = 352
writeThread 352 on CPU 224
APIO_procNo = 608
writeThread 608 on CPU 224
APIO_procNo = 865
writeThread 865 on CPU 225
APIO_procNo = 480
writeThread 480 on CPU 224
APIO_procNo = 738
writeThread 738 on CPU 226
APIO_procNo = 994
APIO_procNo = 227
writeThread 227 on CPU 227
APIO_procNo = 353
writeThread 353 on CPU 225
APIO_procNo = 609
writeThread 609 on CPU 225
APIO_procNo = 866
writeThread 866 on CPU 226
APIO_procNo = 481
writeThread 481 on CPU 225
APIO_procNo = 739
writeThread 739 on CPU 227
APIO_procNo = 995
APIO_procNo = 228
writeThread 228 on CPU 228
APIO_procNo = 354
writeThread 354 on CPU 226
APIO_procNo = 610
writeThread 610 on CPU 226
APIO_procNo = 867
writeThread 867 on CPU 227
APIO_procNo = 482
writeThread 482 on CPU 226
APIO_procNo = 740
writeThread 740 on CPU 228
APIO_procNo = 996
APIO_procNo = 229
writeThread 229 on CPU 229
APIO_procNo = 355
writeThread 355 on CPU 227
APIO_procNo = 611
writeThread 611 on CPU 227
APIO_procNo = 868
writeThread 868 on CPU 228
APIO_procNo = 483
writeThread 483 on CPU 227
APIO_procNo = 741
writeThread 741 on CPU 229
APIO_procNo = 997
APIO_procNo = 230
writeThread 230 on CPU 230
APIO_procNo = 356
writeThread 356 on CPU 228
APIO_procNo = 612
writeThread 612 on CPU 228
APIO_procNo = 869
writeThread 869 on CPU 229
APIO_procNo = 484
writeThread 484 on CPU 228
APIO_procNo = 742
writeThread 742 on CPU 230
APIO_procNo = 998
APIO_procNo = 231
writeThread 231 on CPU 231
APIO_procNo = 357
writeThread 357 on CPU 229
APIO_procNo = 613
writeThread 613 on CPU 229
APIO_procNo = 870
writeThread 870 on CPU 230
APIO_procNo = 485
writeThread 485 on CPU 229
APIO_procNo = 743
writeThread 743 on CPU 231
APIO_procNo = 999
APIO_procNo = 232
writeThread 232 on CPU 232
APIO_procNo = 358
writeThread 358 on CPU 230
APIO_procNo = 614
writeThread 614 on CPU 230
APIO_procNo = 871
APIO_procNo = 486
writeThread 486 on CPU 230
APIO_procNo = 744
writeThread 744 on CPU 232
APIO_procNo = 1000
APIO_procNo = 233
writeThread 233 on CPU 233
APIO_procNo = 359
writeThread 359 on CPU 231
APIO_procNo = 615
writeThread 615 on CPU 231
APIO_procNo = 872
writeThread 872 on CPU 232
APIO_procNo = 487
writeThread 487 on CPU 231
APIO_procNo = 745
writeThread 745 on CPU 233
APIO_procNo = 1001
APIO_procNo = 234
writeThread 234 on CPU 234
APIO_procNo = 360
writeThread 360 on CPU 232
APIO_procNo = 616
writeThread 616 on CPU 232
APIO_procNo = 873
writeThread 873 on CPU 233
APIO_procNo = 488
writeThread 488 on CPU 232
APIO_procNo = 746
writeThread 746 on CPU 234
APIO_procNo = 1002
APIO_procNo = 235
writeThread 235 on CPU 235
APIO_procNo = 361
writeThread 361 on CPU 233
APIO_procNo = 617
writeThread 617 on CPU 233
APIO_procNo = 874
writeThread 874 on CPU 234
APIO_procNo = 489
writeThread 489 on CPU 233
APIO_procNo = 747
writeThread 747 on CPU 235
APIO_procNo = 1003
APIO_procNo = 236
writeThread 236 on CPU 236
APIO_procNo = 362
writeThread 362 on CPU 234
APIO_procNo = 618
writeThread 618 on CPU 234
APIO_procNo = 875
writeThread 875 on CPU 235
APIO_procNo = 490
writeThread 490 on CPU 234
APIO_procNo = 748
writeThread 748 on CPU 236
APIO_procNo = 1004
writeThread 1004 on CPU 236
APIO_procNo = 237
writeThread 237 on CPU 237
APIO_procNo = 363
writeThread 363 on CPU 235
APIO_procNo = 619
writeThread 619 on CPU 235
APIO_procNo = 876
writeThread 876 on CPU 236
APIO_procNo = 491
writeThread 491 on CPU 235
APIO_procNo = 749
writeThread 749 on CPU 237
APIO_procNo = 1005
writeThread 1005 on CPU 237
APIO_procNo = 238
writeThread 238 on CPU 238
APIO_procNo = 364
writeThread 364 on CPU 236
APIO_procNo = 620
writeThread 620 on CPU 236
APIO_procNo = 877
writeThread 877 on CPU 237
APIO_procNo = 492
writeThread 492 on CPU 236
APIO_procNo = 750
writeThread 750 on CPU 238
APIO_procNo = 1006
writeThread 1006 on CPU 238
APIO_procNo = 239
writeThread 239 on CPU 239
APIO_procNo = 365
writeThread 365 on CPU 237
APIO_procNo = 621
writeThread 621 on CPU 237
APIO_procNo = 878
writeThread 878 on CPU 238
APIO_procNo = 493
writeThread 493 on CPU 237
APIO_procNo = 751
writeThread 751 on CPU 239
APIO_procNo = 1007
writeThread 1007 on CPU 239
APIO_procNo = 240
writeThread 240 on CPU 240
APIO_procNo = 366
writeThread 366 on CPU 238
APIO_procNo = 622
writeThread 622 on CPU 238
APIO_procNo = 879
writeThread 879 on CPU 239
APIO_procNo = 494
writeThread 494 on CPU 238
APIO_procNo = 752
writeThread 752 on CPU 240
APIO_procNo = 1008
writeThread 1008 on CPU 240
APIO_procNo = 241
writeThread 241 on CPU 241
APIO_procNo = 367
writeThread 367 on CPU 239
APIO_procNo = 623
writeThread 623 on CPU 239
APIO_procNo = 880
writeThread 880 on CPU 240
APIO_procNo = 495
writeThread 495 on CPU 239
APIO_procNo = 753
writeThread 753 on CPU 241
APIO_procNo = 1009
writeThread 1009 on CPU 241
APIO_procNo = 242
writeThread 242 on CPU 242
APIO_procNo = 368
writeThread 368 on CPU 240
APIO_procNo = 624
APIO_procNo = 881
writeThread 881 on CPU 241
APIO_procNo = 496
writeThread 496 on CPU 240
APIO_procNo = 754
writeThread 754 on CPU 242
APIO_procNo = 1010
writeThread 1010 on CPU 242
APIO_procNo = 243
writeThread 243 on CPU 243
APIO_procNo = 369
writeThread 369 on CPU 241
APIO_procNo = 625
writeThread 625 on CPU 241
APIO_procNo = 882
writeThread 882 on CPU 242
APIO_procNo = 497
writeThread 497 on CPU 241
APIO_procNo = 755
writeThread 755 on CPU 243
APIO_procNo = 1011
writeThread 1011 on CPU 243
APIO_procNo = 244
writeThread 244 on CPU 244
APIO_procNo = 370
writeThread 370 on CPU 242
APIO_procNo = 626
writeThread 626 on CPU 242
APIO_procNo = 883
writeThread 883 on CPU 243
APIO_procNo = 498
writeThread 498 on CPU 242
APIO_procNo = 756
writeThread 756 on CPU 244
APIO_procNo = 1012
writeThread 1012 on CPU 244
APIO_procNo = 245
writeThread 245 on CPU 245
APIO_procNo = 371
writeThread 371 on CPU 243
APIO_procNo = 627
writeThread 627 on CPU 243
APIO_procNo = 884
writeThread 884 on CPU 244
APIO_procNo = 499
writeThread 499 on CPU 243
APIO_procNo = 757
writeThread 757 on CPU 245
APIO_procNo = 1013
writeThread 1013 on CPU 245
APIO_procNo = 246
writeThread 246 on CPU 246
APIO_procNo = 372
writeThread 372 on CPU 244
APIO_procNo = 628
writeThread 628 on CPU 244
APIO_procNo = 885
writeThread 885 on CPU 245
APIO_procNo = 500
writeThread 500 on CPU 244
APIO_procNo = 758
writeThread 758 on CPU 246
APIO_procNo = 1014
writeThread 1014 on CPU 246
APIO_procNo = 247
writeThread 247 on CPU 247
APIO_procNo = 373
writeThread 373 on CPU 245
APIO_procNo = 629
writeThread 629 on CPU 245
APIO_procNo = 886
writeThread 886 on CPU 246
APIO_procNo = 501
writeThread 501 on CPU 245
APIO_procNo = 759
writeThread 759 on CPU 247
APIO_procNo = 1015
writeThread 1015 on CPU 247
APIO_procNo = 248
writeThread 248 on CPU 248
APIO_procNo = 374
writeThread 374 on CPU 246
APIO_procNo = 630
writeThread 630 on CPU 246
APIO_procNo = 887
writeThread 887 on CPU 247
APIO_procNo = 502
writeThread 502 on CPU 246
APIO_procNo = 760
writeThread 760 on CPU 248
APIO_procNo = 1016
writeThread 1016 on CPU 248
APIO_procNo = 249
writeThread 249 on CPU 249
APIO_procNo = 375
writeThread 375 on CPU 247
APIO_procNo = 631
writeThread 631 on CPU 247
APIO_procNo = 888
writeThread 888 on CPU 248
APIO_procNo = 503
writeThread 503 on CPU 247
APIO_procNo = 761
writeThread 761 on CPU 249
APIO_procNo = 1017
writeThread 1017 on CPU 249
APIO_procNo = 250
writeThread 250 on CPU 250
APIO_procNo = 376
writeThread 376 on CPU 248
APIO_procNo = 632
writeThread 632 on CPU 248
APIO_procNo = 889
writeThread 889 on CPU 249
APIO_procNo = 504
writeThread 504 on CPU 248
APIO_procNo = 762
writeThread 762 on CPU 250
APIO_procNo = 1018
writeThread 1018 on CPU 250
APIO_procNo = 251
writeThread 251 on CPU 251
APIO_procNo = 377
writeThread 377 on CPU 249
APIO_procNo = 633
writeThread 633 on CPU 249
APIO_procNo = 890
writeThread 890 on CPU 250
APIO_procNo = 505
APIO_procNo = 763
writeThread 763 on CPU 251
APIO_procNo = 1019
writeThread 1019 on CPU 251
APIO_procNo = 252
writeThread 252 on CPU 252
APIO_procNo = 378
writeThread 378 on CPU 250
APIO_procNo = 634
writeThread 634 on CPU 250
APIO_procNo = 891
writeThread 891 on CPU 251
APIO_procNo = 506
writeThread 506 on CPU 250
APIO_procNo = 764
writeThread 764 on CPU 252
APIO_procNo = 1020
writeThread 1020 on CPU 252
APIO_procNo = 253
writeThread 253 on CPU 253
APIO_procNo = 379
writeThread 379 on CPU 251
APIO_procNo = 635
writeThread 635 on CPU 251
APIO_procNo = 892
writeThread 892 on CPU 252
APIO_procNo = 507
writeThread 507 on CPU 251
APIO_procNo = 765
APIO_procNo = 1021
APIO_procNo = 254
writeThread 254 on CPU 254
APIO_procNo = 380
APIO_procNo = 636
writeThread 636 on CPU 252
APIO_procNo = 893
writeThread 893 on CPU 253
APIO_procNo = 508
writeThread 508 on CPU 252
APIO_procNo = 766
writeThread 766 on CPU 254
APIO_procNo = 1022
writeThread 1022 on CPU 254
APIO_procNo = 255
writeThread 255 on CPU 255
APIO_procNo = 381
writeThread 381 on CPU 253
APIO_procNo = 637
writeThread 637 on CPU 253
APIO_procNo = 894
writeThread 894 on CPU 254
APIO_procNo = 509
writeThread 509 on CPU 253
APIO_procNo = 767
writeThread 767 on CPU 255
APIO_procNo = 1023
writeThread 1023 on CPU 255
writeThread 141 on CPU 141
APIO_procNo = 382
writeThread 382 on CPU 254
APIO_procNo = 638
writeThread 638 on CPU 254
APIO_procNo = 895
writeThread 895 on CPU 255
APIO_procNo = 510
writeThread 510 on CPU 254
writeThread 648 on CPU 136
writeThread 900 on CPU 132
writeThread 142 on CPU 142
APIO_procNo = 383
writeThread 383 on CPU 255
APIO_procNo = 639
writeThread 639 on CPU 255
writeThread 768 on CPU 128
APIO_procNo = 511
writeThread 511 on CPU 255
writeThread 649 on CPU 137
writeThread 901 on CPU 133
writeThread 143 on CPU 143
writeThread 271 on CPU 143
writeThread 512 on CPU 128
writeThread 769 on CPU 129
writeThread 392 on CPU 136
writeThread 651 on CPU 139
writeThread 905 on CPU 137
writeThread 144 on CPU 144
writeThread 380 on CPU 252
writeThread 513 on CPU 129
writeThread 770 on CPU 130
writeThread 394 on CPU 138
writeThread 656 on CPU 144
writeThread 906 on CPU 138
writeThread 145 on CPU 145
writeThread 514 on CPU 130
writeThread 771 on CPU 131
writeThread 395 on CPU 139
writeThread 657 on CPU 145
writeThread 912 on CPU 144
writeThread 146 on CPU 146
writeThread 515 on CPU 131
writeThread 772 on CPU 132
writeThread 398 on CPU 142
writeThread 658 on CPU 146
writeThread 913 on CPU 145
writeThread 147 on CPU 147
writeThread 516 on CPU 132
writeThread 773 on CPU 133
writeThread 399 on CPU 143
writeThread 659 on CPU 147
writeThread 914 on CPU 146
writeThread 148 on CPU 148
writeThread 517 on CPU 133
writeThread 774 on CPU 134
writeThread 400 on CPU 144
writeThread 660 on CPU 148
writeThread 915 on CPU 147
writeThread 149 on CPU 149
writeThread 518 on CPU 134
writeThread 775 on CPU 135
writeThread 401 on CPU 145
writeThread 661 on CPU 149
writeThread 916 on CPU 148
writeThread 150 on CPU 150
writeThread 519 on CPU 135
writeThread 776 on CPU 136
writeThread 402 on CPU 146
writeThread 662 on CPU 150
writeThread 917 on CPU 149
writeThread 151 on CPU 151
writeThread 520 on CPU 136
writeThread 777 on CPU 137
writeThread 403 on CPU 147
writeThread 663 on CPU 151
writeThread 918 on CPU 150
writeThread 152 on CPU 152
writeThread 521 on CPU 137
writeThread 778 on CPU 138
writeThread 404 on CPU 148
writeThread 664 on CPU 152
writeThread 919 on CPU 151
writeThread 153 on CPU 153
writeThread 522 on CPU 138
writeThread 779 on CPU 139
writeThread 405 on CPU 149
writeThread 665 on CPU 153
writeThread 920 on CPU 152
writeThread 154 on CPU 154
writeThread 523 on CPU 139
writeThread 780 on CPU 140
writeThread 406 on CPU 150
writeThread 666 on CPU 154
writeThread 921 on CPU 153
writeThread 155 on CPU 155
writeThread 524 on CPU 140
writeThread 781 on CPU 141
writeThread 407 on CPU 151
writeThread 667 on CPU 155
writeThread 922 on CPU 154
writeThread 156 on CPU 156
writeThread 525 on CPU 141
writeThread 782 on CPU 142
writeThread 408 on CPU 152
writeThread 668 on CPU 156
writeThread 923 on CPU 155
writeThread 157 on CPU 157
writeThread 526 on CPU 142
writeThread 783 on CPU 143
writeThread 409 on CPU 153
writeThread 669 on CPU 157
writeThread 924 on CPU 156
writeThread 158 on CPU 158
writeThread 527 on CPU 143
writeThread 784 on CPU 144
writeThread 410 on CPU 154
writeThread 670 on CPU 158
writeThread 925 on CPU 157
writeThread 159 on CPU 159
writeThread 528 on CPU 144
writeThread 785 on CPU 145
writeThread 411 on CPU 155
writeThread 671 on CPU 159
writeThread 926 on CPU 158
writeThread 160 on CPU 160
writeThread 529 on CPU 145
writeThread 786 on CPU 146
writeThread 412 on CPU 156
writeThread 672 on CPU 160
writeThread 927 on CPU 159
writeThread 161 on CPU 161
writeThread 530 on CPU 146
writeThread 787 on CPU 147
writeThread 413 on CPU 157
writeThread 673 on CPU 161
writeThread 928 on CPU 160
writeThread 162 on CPU 162
writeThread 531 on CPU 147
writeThread 788 on CPU 148
writeThread 414 on CPU 158
writeThread 674 on CPU 162
writeThread 929 on CPU 161
writeThread 163 on CPU 163
writeThread 532 on CPU 148
writeThread 789 on CPU 149
writeThread 415 on CPU 159
writeThread 675 on CPU 163
writeThread 930 on CPU 162
writeThread 164 on CPU 164
writeThread 533 on CPU 149
writeThread 792 on CPU 152
writeThread 416 on CPU 160
writeThread 676 on CPU 164
writeThread 931 on CPU 163
writeThread 165 on CPU 165
writeThread 534 on CPU 150
writeThread 793 on CPU 153
writeThread 417 on CPU 161
writeThread 677 on CPU 165
writeThread 932 on CPU 164
writeThread 166 on CPU 166
writeThread 535 on CPU 151
writeThread 794 on CPU 154
writeThread 418 on CPU 162
writeThread 678 on CPU 166
writeThread 933 on CPU 165
writeThread 167 on CPU 167
writeThread 536 on CPU 152
writeThread 795 on CPU 155
writeThread 419 on CPU 163
writeThread 679 on CPU 167
writeThread 934 on CPU 166
writeThread 168 on CPU 168
writeThread 537 on CPU 153
writeThread 796 on CPU 156
writeThread 420 on CPU 164
writeThread 680 on CPU 168
writeThread 935 on CPU 167
writeThread 169 on CPU 169
writeThread 538 on CPU 154
writeThread 797 on CPU 157
writeThread 421 on CPU 165
writeThread 681 on CPU 169
writeThread 936 on CPU 168
writeThread 170 on CPU 170
writeThread 539 on CPU 155
writeThread 798 on CPU 158
writeThread 422 on CPU 166
writeThread 682 on CPU 170
writeThread 937 on CPU 169
writeThread 171 on CPU 171
writeThread 540 on CPU 156
writeThread 799 on CPU 159
writeThread 423 on CPU 167
writeThread 683 on CPU 171
writeThread 938 on CPU 170
writeThread 172 on CPU 172
writeThread 541 on CPU 157
writeThread 804 on CPU 164
writeThread 424 on CPU 168
writeThread 684 on CPU 172
writeThread 939 on CPU 171
writeThread 173 on CPU 173
writeThread 542 on CPU 158
writeThread 805 on CPU 165
writeThread 425 on CPU 169
writeThread 685 on CPU 173
writeThread 940 on CPU 172
writeThread 174 on CPU 174
writeThread 543 on CPU 159
writeThread 806 on CPU 166
writeThread 426 on CPU 170
writeThread 686 on CPU 174
writeThread 941 on CPU 173
writeThread 175 on CPU 175
writeThread 544 on CPU 160
writeThread 807 on CPU 167
writeThread 427 on CPU 171
writeThread 687 on CPU 175
writeThread 942 on CPU 174
writeThread 176 on CPU 176
writeThread 545 on CPU 161
writeThread 808 on CPU 168
writeThread 428 on CPU 172
writeThread 688 on CPU 176
writeThread 943 on CPU 175
writeThread 177 on CPU 177
writeThread 546 on CPU 162
writeThread 809 on CPU 169
writeThread 429 on CPU 173
writeThread 689 on CPU 177
writeThread 944 on CPU 176
writeThread 178 on CPU 178
writeThread 547 on CPU 163
writeThread 810 on CPU 170
writeThread 430 on CPU 174
writeThread 690 on CPU 178
writeThread 945 on CPU 177
writeThread 179 on CPU 179
writeThread 548 on CPU 164
writeThread 811 on CPU 171
writeThread 431 on CPU 175
writeThread 691 on CPU 179
writeThread 946 on CPU 178
writeThread 180 on CPU 180
writeThread 549 on CPU 165
writeThread 812 on CPU 172
writeThread 432 on CPU 176
writeThread 692 on CPU 180
writeThread 947 on CPU 179
writeThread 181 on CPU 181
writeThread 550 on CPU 166
writeThread 813 on CPU 173
writeThread 433 on CPU 177
writeThread 693 on CPU 181
writeThread 952 on CPU 184
writeThread 182 on CPU 182
writeThread 551 on CPU 167
writeThread 814 on CPU 174
writeThread 434 on CPU 178
writeThread 696 on CPU 184
writeThread 954 on CPU 186
writeThread 183 on CPU 183
writeThread 552 on CPU 168
writeThread 815 on CPU 175
writeThread 435 on CPU 179
writeThread 697 on CPU 185
writeThread 960 on CPU 192
writeThread 184 on CPU 184
writeThread 553 on CPU 169
writeThread 816 on CPU 176
writeThread 436 on CPU 180
writeThread 698 on CPU 186
writeThread 961 on CPU 193
writeThread 185 on CPU 185
writeThread 554 on CPU 170
writeThread 817 on CPU 177
writeThread 437 on CPU 181
writeThread 699 on CPU 187
writeThread 962 on CPU 194
writeThread 186 on CPU 186
writeThread 555 on CPU 171
writeThread 818 on CPU 178
writeThread 438 on CPU 182
writeThread 700 on CPU 188
writeThread 963 on CPU 195
writeThread 187 on CPU 187
writeThread 556 on CPU 172
writeThread 819 on CPU 179
writeThread 439 on CPU 183
writeThread 701 on CPU 189
writeThread 964 on CPU 196
writeThread 208 on CPU 208
writeThread 557 on CPU 173
writeThread 871 on CPU 231
writeThread 440 on CPU 184
writeThread 702 on CPU 190
writeThread 965 on CPU 197
writeThread 221 on CPU 221
writeThread 558 on CPU 174
writeThread 834 on CPU 194
writeThread 441 on CPU 185
writeThread 703 on CPU 191
writeThread 966 on CPU 198
writeThread 559 on CPU 175
writeThread 442 on CPU 186
writeThread 712 on CPU 200
writeThread 967 on CPU 199
writeThread 560 on CPU 176
writeThread 443 on CPU 187
writeThread 765 on CPU 253
writeThread 968 on CPU 200
writeThread 564 on CPU 180
writeThread 444 on CPU 188
writeThread 969 on CPU 201
writeThread 565 on CPU 181
writeThread 445 on CPU 189
writeThread 970 on CPU 202
writeThread 566 on CPU 182
writeThread 446 on CPU 190
writeThread 971 on CPU 203
writeThread 567 on CPU 183
writeThread 447 on CPU 191
writeThread 972 on CPU 204
writeThread 568 on CPU 184
writeThread 452 on CPU 196
writeThread 973 on CPU 205
writeThread 569 on CPU 185
writeThread 453 on CPU 197
writeThread 974 on CPU 206
writeThread 570 on CPU 186
writeThread 454 on CPU 198
writeThread 975 on CPU 207
writeThread 571 on CPU 187
writeThread 455 on CPU 199
writeThread 976 on CPU 208
writeThread 572 on CPU 188
writeThread 456 on CPU 200
writeThread 977 on CPU 209
writeThread 573 on CPU 189
writeThread 457 on CPU 201
writeThread 978 on CPU 210
writeThread 574 on CPU 190
writeThread 458 on CPU 202
writeThread 979 on CPU 211
writeThread 575 on CPU 191
writeThread 459 on CPU 203
writeThread 980 on CPU 212
writeThread 624 on CPU 240
writeThread 460 on CPU 204
writeThread 981 on CPU 213
writeThread 461 on CPU 205
writeThread 982 on CPU 214
writeThread 462 on CPU 206
writeThread 983 on CPU 215
writeThread 463 on CPU 207
writeThread 984 on CPU 216
writeThread 505 on CPU 249
writeThread 985 on CPU 217
writeThread 986 on CPU 218
writeThread 987 on CPU 219
writeThread 988 on CPU 220
writeThread 989 on CPU 221
writeThread 990 on CPU 222
writeThread 991 on CPU 223
writeThread 992 on CPU 224
writeThread 993 on CPU 225
writeThread 994 on CPU 226
writeThread 995 on CPU 227
writeThread 996 on CPU 228
writeThread 997 on CPU 229
writeThread 998 on CPU 230
writeThread 999 on CPU 231
writeThread 1000 on CPU 232
writeThread 1001 on CPU 233
writeThread 1002 on CPU 234
writeThread 1003 on CPU 235
writeThread 1021 on CPU 253

Starting time loop

Courant Number mean: 2.066056443474855e-11 max: 2.085039370078742e-05
deltaT = 1.2e-09
Time = 1.2e-09

PIMPLE: iteration 1
diagonal:  Solving for rho, Initial residual = 0, Final residual = 0, No Iterations 0
DILUPBiCG:  Solving for Ux, Initial residual = 1, Final residual = 1.891576152372251e-20, No Iterations 2
DILUPBiCG:  Solving for Uy, Initial residual = 1, Final residual = 1.556132529589554e-20, No Iterations 2
DILUPBiCG:  Solving for Uz, Initial residual = 1, Final residual = 2.37750280563213e-20, No Iterations 2
DILUPBiCG:  Solving for e, Initial residual = 0.9999980146051592, Final residual = 9.56254202169228e-20, No Iterations 2
DILUPBiCG:  Solving for p, Initial residual = 0.9999992531794573, Final residual = 1.094160228967274e-09, No Iterations 1
pEqnloop: 0
diagonal:  Solving for rho, Initial residual = 0, Final residual = 0, No Iterations 0
time step continuity errors : sum local = 2.473665441515369e-16, global = -2.469547123527692e-16, cumulative = -2.469547123527692e-16
DILUPBiCG:  Solving for p, Initial residual = 2.346042407340473e-07, Final residual = 4.731039987227929e-16, No Iterations 1
pEqnloop: 1
diagonal:  Solving for rho, Initial residual = 0, Final residual = 0, No Iterations 0
time step continuity errors : sum local = 2.677347532472781e-16, global = -2.669349502061961e-16, cumulative = -5.138896625589652e-16
DILUPBiCG:  Solving for k, Initial residual = 0.9999999978299071, Final residual = 2.37829730562502e-20, No Iterations 2
ExecutionTime = 6.4 s  ClockTime = 14 s

Courant Number mean: 2.479280160766932e-11 max: 2.501990921293872e-05
deltaT = 1.44e-09
Time = 2.64e-09

PIMPLE: iteration 1
diagonal:  Solving for rho, Initial residual = 0, Final residual = 0, No Iterations 0
DILUPBiCG:  Solving for Ux, Initial residual = 0.3749195243088457, Final residual = 4.295622028935803e-21, No Iterations 2
DILUPBiCG:  Solving for Uy, Initial residual = 0.3749195242890603, Final residual = 3.542679889006159e-21, No Iterations 2
DILUPBiCG:  Solving for Uz, Initial residual = 0.230759823540107, Final residual = 3.341234758502843e-21, No Iterations 2
DILUPBiCG:  Solving for e, Initial residual = 0.2307525104851437, Final residual = 1.339954235696753e-20, No Iterations 2
DILUPBiCG:  Solving for p, Initial residual = 0.2307596222427649, Final residual = 1.522337882426889e-10, No Iterations 1
pEqnloop: 0
diagonal:  Solving for rho, Initial residual = 0, Final residual = 0, No Iterations 0
time step continuity errors : sum local = 5.468582718789875e-16, global = -5.467622966854208e-16, cumulative = -1.060651959244386e-15
DILUPBiCG:  Solving for p, Initial residual = 1.598676711757988e-07, Final residual = 2.778119479660191e-14, No Iterations 1
pEqnloop: 1
diagonal:  Solving for rho, Initial residual = 0, Final residual = 0, No Iterations 0
time step continuity errors : sum local = 4.816175893238649e-16, global = -4.816121776512674e-16, cumulative = -1.542264136895653e-15
DILUPBiCG:  Solving for k, Initial residual = 0.7612498607713581, Final residual = 1.103387316821173e-20, No Iterations 2
ExecutionTime = 9.52 s  ClockTime = 23 s

Courant Number mean: 2.975154167268685e-11 max: 3.002308059560315e-05
deltaT = 1.728e-09
Time = 4.368e-09

PIMPLE: iteration 1
diagonal:  Solving for rho, Initial residual = 0, Final residual = 0, No Iterations 0
DILUPBiCG:  Solving for Ux, Initial residual = 0.3231076571548787, Final residual = 5.402788402737301e-21, No Iterations 2
DILUPBiCG:  Solving for Uy, Initial residual = 0.3231076579873055, Final residual = 4.488908490028645e-21, No Iterations 2
DILUPBiCG:  Solving for Uz, Initial residual = 0.1406142643037665, Final residual = 3.017673090330679e-21, No Iterations 2
DILUPBiCG:  Solving for e, Initial residual = 0.1406074735141565, Final residual = 1.200105051398148e-20, No Iterations 2
DILUPBiCG:  Solving for p, Initial residual = 0.1406135066423408, Final residual = 1.335875658409274e-10, No Iterations 1
pEqnloop: 0
diagonal:  Solving for rho, Initial residual = 0, Final residual = 0, No Iterations 0
time step continuity errors : sum local = 6.610223400556375e-16, global = -6.608823100987922e-16, cumulative = -2.203146446994446e-15
DILUPBiCG:  Solving for p, Initial residual = 1.00845667904257e-07, Final residual = 1.635171150205792e-13, No Iterations 1
pEqnloop: 1
diagonal:  Solving for rho, Initial residual = 0, Final residual = 0, No Iterations 0
time step continuity errors : sum local = 6.455359428301009e-16, global = -6.455357144153484e-16, cumulative = -2.848682161409794e-15
DILUPBiCG:  Solving for k, Initial residual = 0.5223924253403796, Final residual = 1.123668571401846e-20, No Iterations 2
ExecutionTime = 13.62 s  ClockTime = 33 s

Courant Number mean: 3.570211002151596e-11 max: 3.602653054273847e-05
deltaT = 2.0736e-09
Time = 6.4416e-09

PIMPLE: iteration 1
diagonal:  Solving for rho, Initial residual = 0, Final residual = 0, No Iterations 0
DILUPBiCG:  Solving for Ux, Initial residual = 0.286177427136188, Final residual = 7.058016110939261e-21, No Iterations 2
DILUPBiCG:  Solving for Uy, Initial residual = 0.2861774277252691, Final residual = 5.944839124797897e-21, No Iterations 2
DILUPBiCG:  Solving for Uz, Initial residual = 0.1060778808376405, Final residual = 3.450412829795983e-21, No Iterations 2
DILUPBiCG:  Solving for e, Initial residual = 0.106069601169952, Final residual = 1.352328496908e-20, No Iterations 2
DILUPBiCG:  Solving for p, Initial residual = 0.1060765630908491, Final residual = 1.451290684657362e-10, No Iterations 1
pEqnloop: 0
diagonal:  Solving for rho, Initial residual = 0, Final residual = 0, No Iterations 0
time step continuity errors : sum local = 3.551478783129262e-16, global = -3.524125823683182e-16, cumulative = -3.201094743778112e-15
DILUPBiCG:  Solving for p, Initial residual = 7.231600569864569e-08, Final residual = 5.706166338586551e-13, No Iterations 1
pEqnloop: 1
diagonal:  Solving for rho, Initial residual = 0, Final residual = 0, No Iterations 0
time step continuity errors : sum local = 3.848994181462589e-16, global = -3.843843428794702e-16, cumulative = -3.585479086657582e-15
DILUPBiCG:  Solving for k, Initial residual = 0.3755561812013656, Final residual = 1.226997284101541e-20, No Iterations 2
ExecutionTime = 21.78 s  ClockTime = 46 s

Courant Number mean: 4.284290893285853e-11 max: 4.323015923841612e-05
deltaT = 2.48832e-09
Time = 8.92992e-09

PIMPLE: iteration 1
diagonal:  Solving for rho, Initial residual = 0, Final residual = 0, No Iterations 0
DILUPBiCG:  Solving for Ux, Initial residual = 0.2580115446419863, Final residual = 9.490347284517824e-21, No Iterations 2
DILUPBiCG:  Solving for Uy, Initial residual = 0.2580115452677416, Final residual = 8.16203166370185e-21, No Iterations 2
DILUPBiCG:  Solving for Uz, Initial residual = 0.08805270476337182, Final residual = 4.441054099955024e-21, No Iterations 2
DILUPBiCG:  Solving for e, Initial residual = 0.08804268763327933, Final residual = 1.705325887365156e-20, No Iterations 2
DILUPBiCG:  Solving for p, Initial residual = 0.08805069054558946, Final residual = 1.734893337307233e-10, No Iterations 1
pEqnloop: 0
diagonal:  Solving for rho, Initial residual = 0, Final residual = 0, No Iterations 0
time step continuity errors : sum local = 1.222216094306149e-16, global = -4.196314303349217e-17, cumulative = -3.627442229691074e-15
DILUPBiCG:  Solving for p, Initial residual = 4.054776677563715e-08, Final residual = 5.22046463467031e-14, No Iterations 1
pEqnloop: 1
diagonal:  Solving for rho, Initial residual = 0, Final residual = 0, No Iterations 0
time step continuity errors : sum local = 1.13569774005812e-16, global = -2.078048600376073e-17, cumulative = -3.648222715694835e-15
DILUPBiCG:  Solving for k, Initial residual = 0.2906875148632652, Final residual = 1.477508015718343e-20, No Iterations 2
ExecutionTime = 32.29 s  ClockTime = 62 s

Courant Number mean: 5.141203809639012e-11 max: 5.187377896431862e-05
deltaT = 2.985983999999999e-09
Time = 1.19159e-08

PIMPLE: iteration 1
diagonal:  Solving for rho, Initial residual = 0, Final residual = 0, No Iterations 0
DILUPBiCG:  Solving for Ux, Initial residual = 0.236902698890935, Final residual = 1.314774256969167e-20, No Iterations 2
DILUPBiCG:  Solving for Uy, Initial residual = 0.2369026993587333, Final residual = 1.164264001335152e-20, No Iterations 2
DILUPBiCG:  Solving for Uz, Initial residual = 0.07712850025551395, Final residual = 6.171988967739522e-21, No Iterations 2
DILUPBiCG:  Solving for e, Initial residual = 0.07711598136075244, Final residual = 2.309712770720266e-20, No Iterations 2
DILUPBiCG:  Solving for p, Initial residual = 0.0771253806152114, Final residual = 2.188534210943871e-10, No Iterations 1
pEqnloop: 0
diagonal:  Solving for rho, Initial residual = 0, Final residual = 0, No Iterations 0
time step continuity errors : sum local = 3.641824987122173e-16, global = 3.627905216406963e-16, cumulative = -3.285432194054139e-15
DILUPBiCG:  Solving for p, Initial residual = 2.654841160884388e-08, Final residual = 5.119599918790434e-14, No Iterations 1
pEqnloop: 1
diagonal:  Solving for rho, Initial residual = 0, Final residual = 0, No Iterations 0
time step continuity errors : sum local = 3.776366986657952e-16, global = 3.72255411089224e-16, cumulative = -2.913176782964915e-15
DILUPBiCG:  Solving for k, Initial residual = 0.2385156420711394, Final residual = 1.932875710301763e-20, No Iterations 2
ExecutionTime = 35.72 s  ClockTime = 70 s

Courant Number mean: 6.169524221641845e-11 max: 6.224506732903097e-05
deltaT = 3.583180799999999e-09
Time = 1.54991e-08

PIMPLE: iteration 1
diagonal:  Solving for rho, Initial residual = 0, Final residual = 0, No Iterations 0
DILUPBiCG:  Solving for Ux, Initial residual = 0.2210519062938107, Final residual = 1.873855160038109e-20, No Iterations 2
DILUPBiCG:  Solving for Uy, Initial residual = 0.2210519064156432, Final residual = 1.724970962780026e-20, No Iterations 2
DILUPBiCG:  Solving for Uz, Initial residual = 0.06989938345004305, Final residual = 9.082356295457605e-21, No Iterations 2
DILUPBiCG:  Solving for e, Initial residual = 0.06988419087189159, Final residual = 3.297410499742709e-20, No Iterations 2
DILUPBiCG:  Solving for p, Initial residual = 0.06989550677950718, Final residual = 2.856490630864746e-10, No Iterations 1
pEqnloop: 0
diagonal:  Solving for rho, Initial residual = 0, Final residual = 0, No Iterations 0
time step continuity errors : sum local = 3.229765300416243e-16, global = 3.216530422552899e-16, cumulative = -2.591523740709625e-15
DILUPBiCG:  Solving for p, Initial residual = 2.035401890969292e-08, Final residual = 3.70453549500542e-14, No Iterations 1
pEqnloop: 1
diagonal:  Solving for rho, Initial residual = 0, Final residual = 0, No Iterations 0
time step continuity errors : sum local = 3.153813998315104e-16, global = 3.145500814118619e-16, cumulative = -2.276973659297763e-15
DILUPBiCG:  Solving for k, Initial residual = 0.2042781441227921, Final residual = 2.706492813679053e-20, No Iterations 2
ExecutionTime = 41.03 s  ClockTime = 79 s

Courant Number mean: 7.403545226810747e-11 max: 7.468909815230524e-05
deltaT = 4.299816959999999e-09
Time = 1.97989e-08

PIMPLE: iteration 1
diagonal:  Solving for rho, Initial residual = 0, Final residual = 0, No Iterations 0
DILUPBiCG:  Solving for Ux, Initial residual = 0.2090173327571462, Final residual = 2.741871541070183e-20, No Iterations 2
DILUPBiCG:  Solving for Uy, Initial residual = 0.2090173327336087, Final residual = 2.651716595778654e-20, No Iterations 2
DILUPBiCG:  Solving for Uz, Initial residual = 0.06483302971339334, Final residual = 1.399988886173483e-20, No Iterations 2
DILUPBiCG:  Solving for e, Initial residual = 0.06481489745612515, Final residual = 4.913402635168672e-20, No Iterations 2
DILUPBiCG:  Solving for p, Initial residual = 0.06482824549143335, Final residual = 3.815836700539263e-10, No Iterations 1
pEqnloop: 0
diagonal:  Solving for rho, Initial residual = 0, Final residual = 0, No Iterations 0
time step continuity errors : sum local = 1.391681215399414e-16, global = -7.307764830068714e-17, cumulative = -2.35005130759845e-15
DILUPBiCG:  Solving for p, Initial residual = 1.749735761875091e-08, Final residual = 3.48627938278538e-14, No Iterations 1
pEqnloop: 1
diagonal:  Solving for rho, Initial residual = 0, Final residual = 0, No Iterations 0
time step continuity errors : sum local = 1.39511118502909e-16, global = -8.719066374866348e-17, cumulative = -2.437241971347114e-15
DILUPBiCG:  Solving for k, Initial residual = 0.1805908508019388, Final residual = 4.01358746504282e-20, No Iterations 2
ExecutionTime = 43.96 s  ClockTime = 89 s

Courant Number mean: 8.884424112147854e-11 max: 8.961976116517033e-05
deltaT = 5.159780351999998e-09
Time = 2.49587e-08

PIMPLE: iteration 1
diagonal:  Solving for rho, Initial residual = 0, Final residual = 0, No Iterations 0
DILUPBiCG:  Solving for Ux, Initial residual = 0.1997579591073818, Final residual = 4.267444819241144e-20, No Iterations 2
DILUPBiCG:  Solving for Uy, Initial residual = 0.1997579589567457, Final residual = 4.223823701527508e-20, No Iterations 2
DILUPBiCG:  Solving for Uz, Initial residual = 0.06113770784914874, Final residual = 2.245271128211961e-20, No Iterations 2
DILUPBiCG:  Solving for e, Initial residual = 0.06111598288106929, Final residual = 7.599044146049791e-20, No Iterations 2
DILUPBiCG:  Solving for p, Initial residual = 0.06113196276337016, Final residual = 5.182659844708759e-10, No Iterations 1
pEqnloop: 0
diagonal:  Solving for rho, Initial residual = 0, Final residual = 0, No Iterations 0
time step continuity errors : sum local = 2.871536088533526e-16, global = -2.824785738369315e-16, cumulative = -2.719720545184045e-15
DILUPBiCG:  Solving for p, Initial residual = 1.220150115509748e-08, Final residual = 2.694191495120861e-14, No Iterations 1
pEqnloop: 1
diagonal:  Solving for rho, Initial residual = 0, Final residual = 0, No Iterations 0
time step continuity errors : sum local = 2.824094959447275e-16, global = -2.786944471346368e-16, cumulative = -2.998414992318682e-15
DILUPBiCG:  Solving for k, Initial residual = 0.1635154008143755, Final residual = 6.256961332815819e-20, No Iterations 2
ExecutionTime = 48.17 s  ClockTime = 100 s

Courant Number mean: 1.066155798260658e-10 max: 0.0001075334397309669
deltaT = 6.191736422399998e-09
Time = 3.11504e-08

PIMPLE: iteration 1
diagonal:  Solving for rho, Initial residual = 0, Final residual = 0, No Iterations 0
DILUPBiCG:  Solving for Ux, Initial residual = 0.19254198747403, Final residual = 6.902812967497511e-20, No Iterations 2
DILUPBiCG:  Solving for Uy, Initial residual = 0.1925419873398005, Final residual = 6.959681667637401e-20, No Iterations 2
DILUPBiCG:  Solving for Uz, Initial residual = 0.0583628192664419, Final residual = 3.728817808199128e-20, No Iterations 2
DILUPBiCG:  Solving for e, Initial residual = 0.05833679969788511, Final residual = 1.215681866861346e-19, No Iterations 2
DILUPBiCG:  Solving for p, Initial residual = 0.05835590011942179, Final residual = 7.126039030850734e-10, No Iterations 1
pEqnloop: 0
diagonal:  Solving for rho, Initial residual = 0, Final residual = 0, No Iterations 0
time step continuity errors : sum local = 5.192409246690773e-16, global = -5.106094298787444e-16, cumulative = -3.509024422197427e-15
DILUPBiCG:  Solving for p, Initial residual = 8.258604192560448e-09, Final residual = 2.125038390563732e-14, No Iterations 1
pEqnloop: 1
diagonal:  Solving for rho, Initial residual = 0, Final residual = 0, No Iterations 0
time step continuity errors : sum local = 5.253454172728884e-16, global = -5.232195846010941e-16, cumulative = -4.032244006798521e-15
DILUPBiCG:  Solving for k, Initial residual = 0.1508056956125986, Final residual = 1.019849406667012e-19, No Iterations 2
ExecutionTime = 54.51 s  ClockTime = 114 s

Courant Number mean: 1.279423598881495e-10 max: 0.0001290253889150597
deltaT = 7.430083706879997e-09
Time = 3.85805e-08

PIMPLE: iteration 1
diagonal:  Solving for rho, Initial residual = 0, Final residual = 0, No Iterations 0
DILUPBiCG:  Solving for Ux, Initial residual = 0.1868537991850912, Final residual = 1.143051725505612e-19, No Iterations 2
DILUPBiCG:  Solving for Uy, Initial residual = 0.1868537990863779, Final residual = 1.183748215233531e-19, No Iterations 2
DILUPBiCG:  Solving for Uz, Initial residual = 0.05623286622777741, Final residual = 6.388531642814793e-20, No Iterations 2
DILUPBiCG:  Solving for e, Initial residual = 0.05620169859799037, Final residual = 2.00713633501486e-19, No Iterations 2
DILUPBiCG:  Solving for p, Initial residual = 0.05622459057842389, Final residual = 9.889917638552635e-10, No Iterations 1
pEqnloop: 0
diagonal:  Solving for rho, Initial residual = 0, Final residual = 0, No Iterations 0
time step continuity errors : sum local = 2.488284333240767e-16, global = 2.14016959160374e-16, cumulative = -3.818227047638148e-15
DILUPBiCG:  Solving for p, Initial residual = 1.03254500859624e-08, Final residual = 3.073638606801119e-14, No Iterations 1
pEqnloop: 1
diagonal:  Solving for rho, Initial residual = 0, Final residual = 0, No Iterations 0
time step continuity errors : sum local = 2.00546152297807e-16, global = 1.662435276339895e-16, cumulative = -3.651983520004158e-15
DILUPBiCG:  Solving for k, Initial residual = 0.1411036506613567, Final residual = 1.730588505993863e-19, No Iterations 2
ExecutionTime = 59.83 s  ClockTime = 127 s

Courant Number mean: 1.535362429315026e-10 max: 0.0001548093385833502
deltaT = 8.916100448255996e-09
Time = 4.74966e-08

PIMPLE: iteration 1
diagonal:  Solving for rho, Initial residual = 0, Final residual = 0, No Iterations 0
DILUPBiCG:  Solving for Ux, Initial residual = 0.1823252005563252, Final residual = 1.933427077802198e-19, No Iterations 2
DILUPBiCG:  Solving for Uy, Initial residual = 0.1823252004079129, Final residual = 2.073332438491066e-19, No Iterations 2
DILUPBiCG:  Solving for Uz, Initial residual = 0.05456982741608837, Final residual = 1.125478752644969e-19, No Iterations 2
DILUPBiCG:  Solving for e, Initial residual = 0.05453249138723985, Final residual = 3.414173226278718e-19, No Iterations 2
DILUPBiCG:  Solving for p, Initial residual = 0.05455990300431418, Final residual = 1.382520353714381e-09, No Iterations 1
pEqnloop: 0
diagonal:  Solving for rho, Initial residual = 0, Final residual = 0, No Iterations 0
time step continuity errors : sum local = 1.550738119249872e-16, global = -7.276045040789274e-17, cumulative = -3.724743970412051e-15
DILUPBiCG:  Solving for p, Initial residual = 9.785775492437564e-09, Final residual = 3.411534529493332e-14, No Iterations 1
pEqnloop: 1
diagonal:  Solving for rho, Initial residual = 0, Final residual = 0, No Iterations 0
time step continuity errors : sum local = 1.533110503598346e-16, global = -1.092171813760167e-16, cumulative = -3.833961151788068e-15
DILUPBiCG:  Solving for k, Initial residual = 0.1335466811503773, Final residual = 3.046290928327134e-19, No Iterations 2
ExecutionTime = 66.01000000000001 s  ClockTime = 136 s

Courant Number mean: 1.842515163808908e-10 max: 0.0001857409471672457
deltaT = 1.069932053790719e-08
Time = 5.81959e-08

PIMPLE: iteration 1
diagonal:  Solving for rho, Initial residual = 0, Final residual = 0, No Iterations 0
DILUPBiCG:  Solving for Ux, Initial residual = 0.1786887484354809, Final residual = 3.334992925973188e-19, No Iterations 2
DILUPBiCG:  Solving for Uy, Initial residual = 0.1786887483342883, Final residual = 3.734504139106864e-19, No Iterations 2
DILUPBiCG:  Solving for Uz, Initial residual = 0.05325349149515233, Final residual = 2.032657682815702e-19, No Iterations 2
DILUPBiCG:  Solving for e, Initial residual = 0.05320876710434935, Final residual = 5.974438325503362e-19, No Iterations 2
DILUPBiCG:  Solving for p, Initial residual = 0.05324158853404344, Final residual = 1.943634762744549e-09, No Iterations 1
pEqnloop: 0
diagonal:  Solving for rho, Initial residual = 0, Final residual = 0, No Iterations 0
time step continuity errors : sum local = 1.736780586981368e-16, global = -9.411946112123139e-17, cumulative = -3.928080612909299e-15
DILUPBiCG:  Solving for p, Initial residual = 7.218138508968087e-09, Final residual = 2.967297207286746e-14, No Iterations 1
pEqnloop: 1
diagonal:  Solving for rho, Initial residual = 0, Final residual = 0, No Iterations 0
time step continuity errors : sum local = 1.523939533493268e-16, global = -1.229371008219773e-16, cumulative = -4.051017713731276e-15
DILUPBiCG:  Solving for k, Initial residual = 0.1275637938279501, Final residual = 5.544632080707466e-19, No Iterations 2
ExecutionTime = 69.22 s  ClockTime = 145 s

Courant Number mean: 2.211137773186609e-10 max: 0.0002228458487620226
deltaT = 1.283918464548863e-08
Time = 7.10351e-08

PIMPLE: iteration 1
diagonal:  Solving for rho, Initial residual = 0, Final residual = 0, No Iterations 0
DILUPBiCG:  Solving for Ux, Initial residual = 0.1757467124529797, Final residual = 5.859225822068477e-19, No Iterations 2
DILUPBiCG:  Solving for Uy, Initial residual = 0.1757467124156583, Final residual = 7.001697901137825e-19, No Iterations 2
DILUPBiCG:  Solving for Uz, Initial residual = 0.05219971917096852, Final residual = 3.752420565496306e-19, No Iterations 2
DILUPBiCG:  Solving for e, Initial residual = 0.05214606540959432, Final residual = 1.07395929704253e-18, No Iterations 2
DILUPBiCG:  Solving for p, Initial residual = 0.05218547336408149, Final residual = 2.744856737531674e-09, No Iterations 1
pEqnloop: 0
diagonal:  Solving for rho, Initial residual = 0, Final residual = 0, No Iterations 0
time step continuity errors : sum local = 4.911901193041187e-16, global = -4.335209232709642e-16, cumulative = -4.484538637002241e-15
DILUPBiCG:  Solving for p, Initial residual = 6.419412676289196e-09, Final residual = 3.125107724040795e-14, No Iterations 1
pEqnloop: 1
diagonal:  Solving for rho, Initial residual = 0, Final residual = 0, No Iterations 0
time step continuity errors : sum local = 4.330199189399038e-16, global = -4.329794485313074e-16, cumulative = -4.917518085533548e-15
DILUPBiCG:  Solving for k, Initial residual = 0.1227635706604271, Final residual = 1.040438858990692e-18, No Iterations 2
ExecutionTime = 71.01000000000001 s  ClockTime = 154 s

Courant Number mean: 2.653544440140701e-10 max: 0.0002673531757326264
deltaT = 1.540702157458636e-08
Time = 8.64421e-08

PIMPLE: iteration 1
diagonal:  Solving for rho, Initial residual = 0, Final residual = 0, No Iterations 0
DILUPBiCG:  Solving for Ux, Initial residual = 0.1733503889122088, Final residual = 1.047351366004406e-18, No Iterations 2
DILUPBiCG:  Solving for Uy, Initial residual = 0.173350388941592, Final residual = 1.340362763008463e-18, No Iterations 2
DILUPBiCG:  Solving for Uz, Initial residual = 0.0513478353239023, Final residual = 7.060381187624488e-19, No Iterations 2
DILUPBiCG:  Solving for e, Initial residual = 0.05128358475172008, Final residual = 1.980258212542175e-18, No Iterations 2
DILUPBiCG:  Solving for p, Initial residual = 0.05133082867827765, Final residual = 3.890480600612893e-09, No Iterations 1
pEqnloop: 0
diagonal:  Solving for rho, Initial residual = 0, Final residual = 0, No Iterations 0
time step continuity errors : sum local = 3.289977352237581e-16, global = 2.356363329906469e-16, cumulative = -4.681881752542902e-15
DILUPBiCG:  Solving for p, Initial residual = 7.418547181975651e-09, Final residual = 4.28887877097929e-14, No Iterations 1
pEqnloop: 1
diagonal:  Solving for rho, Initial residual = 0, Final residual = 0, No Iterations 0
time step continuity errors : sum local = 2.465810483763708e-16, global = 2.381595780415801e-16, cumulative = -4.443722174501322e-15
DILUPBiCG:  Solving for k, Initial residual = 0.11886955426302, Final residual = 2.007271034587703e-18, No Iterations 2
ExecutionTime = 73.13 s  ClockTime = 163 s

Courant Number mean: 3.184523155217647e-10 max: 0.0003207356037221298
deltaT = 1.848842588950363e-08
Time = 1.04931e-07

PIMPLE: iteration 1
diagonal:  Solving for rho, Initial residual = 0, Final residual = 0, No Iterations 0
DILUPBiCG:  Solving for Ux, Initial residual = 0.1713861681422583, Final residual = 1.90218258161043e-18, No Iterations 2
DILUPBiCG:  Solving for Uy, Initial residual = 0.1713861681905894, Final residual = 2.621158278963334e-18, No Iterations 2
DILUPBiCG:  Solving for Uz, Initial residual = 0.05065296332205974, Final residual = 1.350091044928294e-18, No Iterations 2
DILUPBiCG:  Solving for e, Initial residual = 0.05057604375970723, Final residual = 3.739730292680438e-18, No Iterations 2
DILUPBiCG:  Solving for p, Initial residual = 0.05063268431186741, Final residual = 5.530556324500824e-09, No Iterations 1
pEqnloop: 0
diagonal:  Solving for rho, Initial residual = 0, Final residual = 0, No Iterations 0
time step continuity errors : sum local = 4.416085238353952e-16, global = 3.031950880524506e-16, cumulative = -4.140527086448871e-15
DILUPBiCG:  Solving for p, Initial residual = 8.307073519207028e-09, Final residual = 5.727569041456754e-14, No Iterations 1
pEqnloop: 1
diagonal:  Solving for rho, Initial residual = 0, Final residual = 0, No Iterations 0
time step continuity errors : sum local = 2.793122436919346e-16, global = 2.759853711223677e-16, cumulative = -3.864541715326503e-15
DILUPBiCG:  Solving for k, Initial residual = 0.1156814569298854, Final residual = 3.971221417458099e-18, No Iterations 2
ExecutionTime = 77.37 s  ClockTime = 179 s

Courant Number mean: 3.821836782891941e-10 max: 0.0003847571616184497
deltaT = 2.218611106740435e-08
Time = 1.27117e-07

PIMPLE: iteration 1
diagonal:  Solving for rho, Initial residual = 0, Final residual = 0, No Iterations 0
DILUPBiCG:  Solving for Ux, Initial residual = 0.1697659762770232, Final residual = 3.502547223250006e-18, No Iterations 2
DILUPBiCG:  Solving for Uy, Initial residual = 0.1697659763183491, Final residual = 5.246177269486053e-18, No Iterations 2
DILUPBiCG:  Solving for Uz, Initial residual = 0.05008116439163144, Final residual = 2.616016482393248e-18, No Iterations 2
DILUPBiCG:  Solving for e, Initial residual = 0.04998909825368107, Final residual = 7.222196551323831e-18, No Iterations 2
DILUPBiCG:  Solving for p, Initial residual = 0.05005702954763519, Final residual = 7.881065732677403e-09, No Iterations 1
pEqnloop: 0
diagonal:  Solving for rho, Initial residual = 0, Final residual = 0, No Iterations 0
time step continuity errors : sum local = 5.125198273380113e-16, global = -1.986066643402981e-16, cumulative = -4.063148379666801e-15
DILUPBiCG:  Solving for p, Initial residual = 9.942012013075295e-09, Final residual = 8.204239696747737e-14, No Iterations 1
pEqnloop: 1
diagonal:  Solving for rho, Initial residual = 0, Final residual = 0, No Iterations 0
time step continuity errors : sum local = 2.497168428038013e-16, global = -2.336410711739481e-16, cumulative = -4.296789450840749e-15
DILUPBiCG:  Solving for k, Initial residual = 0.1130508733742419, Final residual = 8.037638482438249e-18, No Iterations 2
ExecutionTime = 81.3 s  ClockTime = 196 s

Courant Number mean: 4.586828152556376e-10 max: 0.0004615302830703818
deltaT = 2.662333328088522e-08
Time = 1.5374e-07

PIMPLE: iteration 1
diagonal:  Solving for rho, Initial residual = 0, Final residual = 0, No Iterations 0
DILUPBiCG:  Solving for Ux, Initial residual = 0.168420586022266, Final residual = 6.516181111546087e-18, No Iterations 2
DILUPBiCG:  Solving for Uy, Initial residual = 0.1684205860532243, Final residual = 1.078301313314403e-17, No Iterations 2
DILUPBiCG:  Solving for Uz, Initial residual = 0.04960627258582534, Final residual = 5.120551248079841e-18, No Iterations 2
DILUPBiCG:  Solving for e, Initial residual = 0.04949610193996085, Final residual = 1.424075551147018e-17, No Iterations 2
DILUPBiCG:  Solving for p, Initial residual = 0.04957759092693625, Final residual = 1.125303596754967e-08, No Iterations 1
pEqnloop: 0
diagonal:  Solving for rho, Initial residual = 0, Final residual = 0, No Iterations 0
time step continuity errors : sum local = 1.056040671671799e-15, global = -5.407533629880024e-16, cumulative = -4.837542813828752e-15
DILUPBiCG:  Solving for p, Initial residual = 1.302768973408476e-08, Final residual = 1.289799529067283e-13, No Iterations 1
pEqnloop: 1
diagonal:  Solving for rho, Initial residual = 0, Final residual = 0, No Iterations 0
time step continuity errors : sum local = 5.886046163643616e-16, global = -5.863490734086709e-16, cumulative = -5.423891887237423e-15
DILUPBiCG:  Solving for k, Initial residual = 0.1108656712397714, Final residual = 1.660535289631702e-17, No Iterations 2
ExecutionTime = 84.52 s  ClockTime = 204 s

Courant Number mean: 5.505152374406925e-10 max: 0.0005535838593398173
deltaT = 3.194799993706226e-08
Time = 1.85688e-07

PIMPLE: iteration 1
diagonal:  Solving for rho, Initial residual = 0, Final residual = 0, No Iterations 0
DILUPBiCG:  Solving for Ux, Initial residual = 0.1672948818409954, Final residual = 1.218255477454807e-17, No Iterations 2
DILUPBiCG:  Solving for Uy, Initial residual = 0.1672948818583626, Final residual = 2.301207502803421e-17, No Iterations 2
DILUPBiCG:  Solving for Uz, Initial residual = 0.04920774228719253, Final residual = 1.009035957976466e-17, No Iterations 2
DILUPBiCG:  Solving for e, Initial residual = 0.04907595368027536, Final residual = 2.8626562756212e-17, No Iterations 2
DILUPBiCG:  Solving for p, Initial residual = 0.04917370408927339, Final residual = 1.609458368427024e-08, No Iterations 1
pEqnloop: 0
diagonal:  Solving for rho, Initial residual = 0, Final residual = 0, No Iterations 0
[...]
DILUPBiCG:  Solving for p, Initial residual = 0.0002836321167419583, Final residual = 4.792237553257363e-15, No Iterations 5
pEqnloop: 1
diagonal:  Solving for rho, Initial residual = 0, Final residual = 0, No Iterations 0
time step continuity errors : sum local = 1.805930437343354e-16, global = -6.650022639052188e-17, cumulative = 1.6412578278762e-10
DILUPBiCG:  Solving for k, Initial residual = 0.09153431378558603, Final residual = 5.163411745535976e-14, No Iterations 4
ExecutionTime = 1718.58 s  ClockTime = 7032 s

APIO_IO_STEP = 69.99078271000053
Courant Number mean: 1.946463084958051e-07 max: 0.129500752055471
deltaT = 4.222086814113659e-06
Time = 2.61597e-05

PIMPLE: iteration 1
diagonal:  Solving for rho, Initial residual = 0, Final residual = 0, No Iterations 0
DILUPBiCG:  Solving for Ux, Initial residual = 0.1444518874641632, Final residual = 2.818173548488837e-13, No Iterations 5
DILUPBiCG:  Solving for Uy, Initial residual = 0.144451763257771, Final residual = 7.430573951396031e-13, No Iterations 5
DILUPBiCG:  Solving for Uz, Initial residual = 0.04537020148882756, Final residual = 1.086959701393516e-13, No Iterations 5
DILUPBiCG:  Solving for e, Initial residual = 0.04040009248406993, Final residual = 3.292683145558985e-15, No Iterations 5
DILUPBiCG:  Solving for p, Initial residual = 0.04459083954882857, Final residual = 0.0002900434522652339, No Iterations 1
pEqnloop: 0
diagonal:  Solving for rho, Initial residual = 0, Final residual = 0, No Iterations 0
time step continuity errors : sum local = 1.671535749779618e-09, global = -6.065985344744309e-11, cumulative = 1.034659293401769e-10
DILUPBiCG:  Solving for p, Initial residual = 0.0004981353018609682, Final residual = 4.862351746396104e-14, No Iterations 5
pEqnloop: 1
diagonal:  Solving for rho, Initial residual = 0, Final residual = 0, No Iterations 0
time step continuity errors : sum local = 1.710025512978536e-16, global = 2.344554363427379e-17, cumulative = 1.034659527857205e-10
DILUPBiCG:  Solving for k, Initial residual = 0.08628851993137476, Final residual = 2.244621624599564e-13, No Iterations 4
ExecutionTime = 1732.02 s  ClockTime = 7160 s

APIO_IO_STEP = 73.89683237400004
Courant Number mean: 2.602546168278134e-07 max: 0.1613905058977332
deltaT = 4.745300591854587e-06
Time = 3.0905e-05

PIMPLE: iteration 1
diagonal:  Solving for rho, Initial residual = 0, Final residual = 0, No Iterations 0
DILUPBiCG:  Solving for Ux, Initial residual = 0.1370707377694543, Final residual = 6.300828383329339e-15, No Iterations 6
DILUPBiCG:  Solving for Uy, Initial residual = 0.1370705316858111, Final residual = 3.01309781613546e-14, No Iterations 6
DILUPBiCG:  Solving for Uz, Initial residual = 0.04424170526606529, Final residual = 5.677283068053666e-13, No Iterations 5
DILUPBiCG:  Solving for e, Initial residual = 0.04037352823104503, Final residual = 4.047565543466282e-14, No Iterations 5
DILUPBiCG:  Solving for p, Initial residual = 0.04470672157046794, Final residual = 0.0003809150607197454, No Iterations 1
pEqnloop: 0
diagonal:  Solving for rho, Initial residual = 0, Final residual = 0, No Iterations 0
time step continuity errors : sum local = 2.573280263352143e-09, global = -2.968421856228562e-10, cumulative = -1.933762328371357e-10
DILUPBiCG:  Solving for p, Initial residual = 0.001516066331612987, Final residual = 2.680405733774299e-13, No Iterations 5
pEqnloop: 1
diagonal:  Solving for rho, Initial residual = 0, Final residual = 0, No Iterations 0
time step continuity errors : sum local = 1.632028520382483e-16, global = -1.646454300192096e-17, cumulative = -1.933762493016787e-10
DILUPBiCG:  Solving for k, Initial residual = 0.07990808761072986, Final residual = 3.744198770111738e-14, No Iterations 5
ExecutionTime = 1750.71 s  ClockTime = 7294 s

APIO_IO_STEP = 75.42631722199894
Courant Number mean: 3.454048076223052e-07 max: 0.1918628815836923
deltaT = 4.946554073081219e-06
Time = 3.58515e-05

PIMPLE: iteration 1
diagonal:  Solving for rho, Initial residual = 0, Final residual = 0, No Iterations 0
DILUPBiCG:  Solving for Ux, Initial residual = 0.1236361403936688, Final residual = 1.066709957244877e-14, No Iterations 6
DILUPBiCG:  Solving for Uy, Initial residual = 0.1236353550226593, Final residual = 6.067579954968903e-14, No Iterations 6
DILUPBiCG:  Solving for Uz, Initial residual = 0.04328054533147239, Final residual = 2.69482259059026e-14, No Iterations 6
DILUPBiCG:  Solving for e, Initial residual = 0.03719443422335852, Final residual = 2.276591022264213e-13, No Iterations 5
DILUPBiCG:  Solving for p, Initial residual = 0.04096867752745918, Final residual = 0.0003873392682925836, No Iterations 1
pEqnloop: 0
diagonal:  Solving for rho, Initial residual = 0, Final residual = 0, No Iterations 0
time step continuity errors : sum local = 3.032777892425399e-09, global = -6.281836854582499e-10, cumulative = -8.215599347599285e-10
DILUPBiCG:  Solving for p, Initial residual = 0.001245225791750701, Final residual = 7.188152418120531e-13, No Iterations 5
pEqnloop: 1
diagonal:  Solving for rho, Initial residual = 0, Final residual = 0, No Iterations 0
time step continuity errors : sum local = 1.808228728409842e-16, global = 7.864842247579992e-17, cumulative = -8.21559856111506e-10
DILUPBiCG:  Solving for k, Initial residual = 0.07019039815495692, Final residual = 4.081793253729645e-14, No Iterations 5
ExecutionTime = 1784.83 s  ClockTime = 7435 s

APIO_IO_STEP = 89.66701008000109
Courant Number mean: 4.301325258155691e-07 max: 0.2109400757805635
deltaT = 4.690008813903139e-06
Time = 4.05415e-05

PIMPLE: iteration 1
diagonal:  Solving for rho, Initial residual = 0, Final residual = 0, No Iterations 0
DILUPBiCG:  Solving for Ux, Initial residual = 0.1049700530315257, Final residual = 1.023106621957917e-14, No Iterations 6
DILUPBiCG:  Solving for Uy, Initial residual = 0.1049687509045558, Final residual = 2.234057613227419e-14, No Iterations 6
DILUPBiCG:  Solving for Uz, Initial residual = 0.03985537769540756, Final residual = 7.230961501495207e-15, No Iterations 6
DILUPBiCG:  Solving for e, Initial residual = 0.03207157510750828, Final residual = 5.830858280494846e-13, No Iterations 5
DILUPBiCG:  Solving for p, Initial residual = 0.03537512491284515, Final residual = 0.0002817410919632191, No Iterations 1
pEqnloop: 0
diagonal:  Solving for rho, Initial residual = 0, Final residual = 0, No Iterations 0
time step continuity errors : sum local = 2.510571282536921e-09, global = -1.063218960430051e-10, cumulative = -9.278817521545111e-10
DILUPBiCG:  Solving for p, Initial residual = 0.0006575300215890479, Final residual = 1.720765177703541e-13, No Iterations 5
pEqnloop: 1
diagonal:  Solving for rho, Initial residual = 0, Final residual = 0, No Iterations 0
time step continuity errors : sum local = 1.807121220395739e-16, global = -9.208591351573865e-17, cumulative = -9.278818442404246e-10
DILUPBiCG:  Solving for k, Initial residual = 0.05803535388219425, Final residual = 1.340524285992388e-13, No Iterations 5
ExecutionTime = 1822.25 s  ClockTime = 7566 s

APIO_IO_STEP = 68.92120846500075
Courant Number mean: 4.768526982705323e-07 max: 0.2103330757719508
deltaT = 4.459601797473032e-06
Time = 4.50011e-05

PIMPLE: iteration 1
diagonal:  Solving for rho, Initial residual = 0, Final residual = 0, No Iterations 0
DILUPBiCG:  Solving for Ux, Initial residual = 0.09166714042647692, Final residual = 8.906014621956095e-15, No Iterations 6
DILUPBiCG:  Solving for Uy, Initial residual = 0.09166540994368641, Final residual = 2.786532994988953e-14, No Iterations 6
DILUPBiCG:  Solving for Uz, Initial residual = 0.0357535958723414, Final residual = 7.915313289575508e-15, No Iterations 6
DILUPBiCG:  Solving for e, Initial residual = 0.02886999594654324, Final residual = 8.214430161656626e-13, No Iterations 5
DILUPBiCG:  Solving for p, Initial residual = 0.03426725398037468, Final residual = 0.0002368344476909241, No Iterations 1
pEqnloop: 0
diagonal:  Solving for rho, Initial residual = 0, Final residual = 0, No Iterations 0
time step continuity errors : sum local = 2.353369699731758e-09, global = -5.173933647295244e-11, cumulative = -9.79621180713377e-10
DILUPBiCG:  Solving for p, Initial residual = 0.0003532839996129703, Final residual = 1.590837882097355e-13, No Iterations 5
pEqnloop: 1
diagonal:  Solving for rho, Initial residual = 0, Final residual = 0, No Iterations 0
time step continuity errors : sum local = 1.795357318077167e-16, global = -5.891389025062952e-18, cumulative = -9.796211866047659e-10
DILUPBiCG:  Solving for k, Initial residual = 0.04951729741575588, Final residual = 1.408026574469654e-13, No Iterations 5
ExecutionTime = 1842.31 s  ClockTime = 7698 s

APIO_IO_STEP = 78.59968999100147
Courant Number mean: 5.144596185491023e-07 max: 0.2091223047928812
deltaT = 4.265065653221341e-06
Time = 4.92662e-05

PIMPLE: iteration 1
diagonal:  Solving for rho, Initial residual = 0, Final residual = 0, No Iterations 0
DILUPBiCG:  Solving for Ux, Initial residual = 0.08206368058489592, Final residual = 7.822954706610238e-15, No Iterations 6
DILUPBiCG:  Solving for Uy, Initial residual = 0.08206225969298088, Final residual = 2.932656278146051e-14, No Iterations 6
DILUPBiCG:  Solving for Uz, Initial residual = 0.03154234955632557, Final residual = 7.804208207510318e-13, No Iterations 5
DILUPBiCG:  Solving for e, Initial residual = 0.0273694227796512, Final residual = 6.162068579253777e-13, No Iterations 5
DILUPBiCG:  Solving for p, Initial residual = 0.03305035486333283, Final residual = 0.0002152808960209238, No Iterations 1
pEqnloop: 0
diagonal:  Solving for rho, Initial residual = 0, Final residual = 0, No Iterations 0
time step continuity errors : sum local = 2.350720834645994e-09, global = -2.144419032953515e-10, cumulative = -1.194063089900117e-09
DILUPBiCG:  Solving for p, Initial residual = 0.000674837458449298, Final residual = 2.460115490076375e-13, No Iterations 5
pEqnloop: 1
diagonal:  Solving for rho, Initial residual = 0, Final residual = 0, No Iterations 0
time step continuity errors : sum local = 1.787558264043123e-16, global = -2.114684088589417e-17, cumulative = -1.194063111046958e-09
DILUPBiCG:  Solving for k, Initial residual = 0.04325619922083593, Final residual = 4.552578894625545e-14, No Iterations 5
ExecutionTime = 1890.63 s  ClockTime = 7840 s

APIO_IO_STEP = 61.0646190009993
Courant Number mean: 5.478547333662738e-07 max: 0.2077192870189607
deltaT = 4.106566813732616e-06
Time = 5.33728e-05

PIMPLE: iteration 1
diagonal:  Solving for rho, Initial residual = 0, Final residual = 0, No Iterations 0
DILUPBiCG:  Solving for Ux, Initial residual = 0.07450152519285015, Final residual = 8.193358043580484e-15, No Iterations 6
DILUPBiCG:  Solving for Uy, Initial residual = 0.07450057114086872, Final residual = 3.075702417443525e-14, No Iterations 6
DILUPBiCG:  Solving for Uz, Initial residual = 0.02782559459461171, Final residual = 6.045238345640843e-13, No Iterations 5
DILUPBiCG:  Solving for e, Initial residual = 0.0250509327308432, Final residual = 3.984570182719747e-13, No Iterations 5
DILUPBiCG:  Solving for p, Initial residual = 0.02947302132257899, Final residual = 0.0001860045511793889, No Iterations 1
pEqnloop: 0
diagonal:  Solving for rho, Initial residual = 0, Final residual = 0, No Iterations 0
time step continuity errors : sum local = 2.20716418200938e-09, global = -4.336689710068129e-10, cumulative = -1.627732082053771e-09
DILUPBiCG:  Solving for p, Initial residual = 0.0008169525326958085, Final residual = 9.030222001489398e-13, No Iterations 5
pEqnloop: 1
diagonal:  Solving for rho, Initial residual = 0, Final residual = 0, No Iterations 0
time step continuity errors : sum local = 1.939849376653382e-16, global = -7.490893936879362e-17, cumulative = -1.627732156962711e-09
DILUPBiCG:  Solving for k, Initial residual = 0.03849395083647791, Final residual = 5.954071598327716e-14, No Iterations 5
ExecutionTime = 1921.82 s  ClockTime = 7982 s

APIO_IO_STEP = 72.7376642399995
Courant Number mean: 5.86526246459541e-07 max: 0.2064224322426358
deltaT = 3.978798979469054e-06
Time = 5.73516e-05

PIMPLE: iteration 1
diagonal:  Solving for rho, Initial residual = 0, Final residual = 0, No Iterations 0
DILUPBiCG:  Solving for Ux, Initial residual = 0.06796355731145007, Final residual = 8.610929352854684e-13, No Iterations 5
DILUPBiCG:  Solving for Uy, Initial residual = 0.06796285160154576, Final residual = 3.379844841551792e-14, No Iterations 6
DILUPBiCG:  Solving for Uz, Initial residual = 0.02490846994098067, Final residual = 5.11113688126129e-13, No Iterations 5
DILUPBiCG:  Solving for e, Initial residual = 0.02230951379111094, Final residual = 3.567570707724351e-13, No Iterations 5
DILUPBiCG:  Solving for p, Initial residual = 0.02599441926210663, Final residual = 0.0001523944599506327, No Iterations 1
pEqnloop: 0
diagonal:  Solving for rho, Initial residual = 0, Final residual = 0, No Iterations 0
time step continuity errors : sum local = 1.948254959537263e-09, global = -4.204441820201944e-10, cumulative = -2.048176338982905e-09
DILUPBiCG:  Solving for p, Initial residual = 0.0004566395198105833, Final residual = 1.045559907355785e-15, No Iterations 6
pEqnloop: 1
diagonal:  Solving for rho, Initial residual = 0, Final residual = 0, No Iterations 0
time step continuity errors : sum local = 1.726031411954693e-16, global = 3.494511679766743e-17, cumulative = -2.048176304037788e-09
DILUPBiCG:  Solving for k, Initial residual = 0.03478595075188544, Final residual = 9.278063591677262e-14, No Iterations 5
ExecutionTime = 1951.03 s  ClockTime = 8117 s

APIO_IO_STEP = 66.88813313500032
Courant Number mean: 6.312059453764994e-07 max: 0.2053850077659488
deltaT = 3.874478495531832e-06
Time = 6.1226e-05

PIMPLE: iteration 1
diagonal:  Solving for rho, Initial residual = 0, Final residual = 0, No Iterations 0
DILUPBiCG:  Solving for Ux, Initial residual = 0.06245565640165092, Final residual = 7.15758157683702e-13, No Iterations 5
DILUPBiCG:  Solving for Uy, Initial residual = 0.06245526033622854, Final residual = 1.083659158196704e-14, No Iterations 6
DILUPBiCG:  Solving for Uz, Initial residual = 0.02284435934054137, Final residual = 4.287243742536603e-13, No Iterations 5
DILUPBiCG:  Solving for e, Initial residual = 0.02027865062088397, Final residual = 3.317660413744895e-13, No Iterations 5
DILUPBiCG:  Solving for p, Initial residual = 0.02434937812119693, Final residual = 0.0001282497143646162, No Iterations 1
pEqnloop: 0
diagonal:  Solving for rho, Initial residual = 0, Final residual = 0, No Iterations 0
time step continuity errors : sum local = 1.754570995077796e-09, global = -2.736281391813187e-10, cumulative = -2.321804443219107e-09
DILUPBiCG:  Solving for p, Initial residual = 0.0002312104827412301, Final residual = 3.266865406418811e-14, No Iterations 5
pEqnloop: 1
diagonal:  Solving for rho, Initial residual = 0, Final residual = 0, No Iterations 0
time step continuity errors : sum local = 1.662173570735711e-16, global = 2.525803539980997e-17, cumulative = -2.321804417961072e-09
DILUPBiCG:  Solving for k, Initial residual = 0.03189616444286921, Final residual = 1.454741047172788e-13, No Iterations 5
ExecutionTime = 1989.9 s  ClockTime = 8257 s

APIO_IO_STEP = 70.01446029900126
Courant Number mean: 6.759236358320788e-07 max: 0.2046283626286987
deltaT = 3.78684405793943e-06
Time = 6.50129e-05

PIMPLE: iteration 1
diagonal:  Solving for rho, Initial residual = 0, Final residual = 0, No Iterations 0
DILUPBiCG:  Solving for Ux, Initial residual = 0.05769394740177701, Final residual = 5.91980589453448e-13, No Iterations 5
DILUPBiCG:  Solving for Uy, Initial residual = 0.05769378304204831, Final residual = 6.40489861202703e-15, No Iterations 6
DILUPBiCG:  Solving for Uz, Initial residual = 0.02132205273335398, Final residual = 3.608360666359097e-13, No Iterations 5
DILUPBiCG:  Solving for e, Initial residual = 0.01903696712432805, Final residual = 2.813657805865238e-13, No Iterations 5
DILUPBiCG:  Solving for p, Initial residual = 0.02576788653573484, Final residual = 0.0001282429357664443, No Iterations 1
pEqnloop: 0
diagonal:  Solving for rho, Initial residual = 0, Final residual = 0, No Iterations 0
time step continuity errors : sum local = 1.86737746347533e-09, global = -2.973758385896733e-10, cumulative = -2.619180256550745e-09
DILUPBiCG:  Solving for p, Initial residual = 0.0002185924659706057, Final residual = 4.032013237242824e-14, No Iterations 5
pEqnloop: 1
diagonal:  Solving for rho, Initial residual = 0, Final residual = 0, No Iterations 0
time step continuity errors : sum local = 1.636053026514499e-16, global = -4.580612201704226e-18, cumulative = -2.619180261131357e-09
DILUPBiCG:  Solving for k, Initial residual = 0.02943249105349859, Final residual = 1.878314961955059e-13, No Iterations 5
ExecutionTime = 2023.33 s  ClockTime = 8397 s

APIO_IO_STEP = 73.28162837499895
Courant Number mean: 7.17198140396306e-07 max: 0.2040741779199434
deltaT = 3.711242741769082e-06
Time = 6.87241e-05

PIMPLE: iteration 1
diagonal:  Solving for rho, Initial residual = 0, Final residual = 0, No Iterations 0
DILUPBiCG:  Solving for Ux, Initial residual = 0.05348679749280608, Final residual = 4.886657466081978e-13, No Iterations 5
DILUPBiCG:  Solving for Uy, Initial residual = 0.05348658984338575, Final residual = 9.13754721070189e-13, No Iterations 5
DILUPBiCG:  Solving for Uz, Initial residual = 0.01967294637020909, Final residual = 2.927976196927912e-13, No Iterations 5
DILUPBiCG:  Solving for e, Initial residual = 0.01905537575149533, Final residual = 2.274388727799033e-13, No Iterations 5
DILUPBiCG:  Solving for p, Initial residual = 0.02547910731474586, Final residual = 0.0001253242774438545, No Iterations 1
pEqnloop: 0
diagonal:  Solving for rho, Initial residual = 0, Final residual = 0, No Iterations 0
time step continuity errors : sum local = 1.93344410813088e-09, global = -3.690723082052789e-10, cumulative = -2.988252569336636e-09
DILUPBiCG:  Solving for p, Initial residual = 0.0005782917080102364, Final residual = 5.796522549931245e-14, No Iterations 5
pEqnloop: 1
diagonal:  Solving for rho, Initial residual = 0, Final residual = 0, No Iterations 0
time step continuity errors : sum local = 1.63236630676556e-16, global = -9.81746281763833e-18, cumulative = -2.988252579154099e-09
DILUPBiCG:  Solving for k, Initial residual = 0.02731927264470994, Final residual = 1.892311140040364e-13, No Iterations 5
ExecutionTime = 2049.87 s  ClockTime = 8515 s

APIO_IO_STEP = 76.66421864200129
Courant Number mean: 7.592341248088017e-07 max: 0.2036150004092274
deltaT = 3.645352979210935e-06
Time = 7.23695e-05

PIMPLE: iteration 1
diagonal:  Solving for rho, Initial residual = 0, Final residual = 0, No Iterations 0
DILUPBiCG:  Solving for Ux, Initial residual = 0.04991087707198689, Final residual = 4.116847785893167e-13, No Iterations 5
DILUPBiCG:  Solving for Uy, Initial residual = 0.04991082100401447, Final residual = 6.912429031904177e-13, No Iterations 5
DILUPBiCG:  Solving for Uz, Initial residual = 0.01818580101004264, Final residual = 2.320354502626879e-13, No Iterations 5
DILUPBiCG:  Solving for e, Initial residual = 0.01852085102465318, Final residual = 1.763271042485561e-13, No Iterations 5
DILUPBiCG:  Solving for p, Initial residual = 0.02387993632963203, Final residual = 0.0001159985390786666, No Iterations 1
pEqnloop: 0
diagonal:  Solving for rho, Initial residual = 0, Final residual = 0, No Iterations 0
time step continuity errors : sum local = 1.888570542844814e-09, global = -4.085662158058901e-10, cumulative = -3.396818794959989e-09
DILUPBiCG:  Solving for p, Initial residual = 0.0003846655453424283, Final residual = 5.685034867532713e-14, No Iterations 5
pEqnloop: 1
diagonal:  Solving for rho, Initial residual = 0, Final residual = 0, No Iterations 0
time step continuity errors : sum local = 1.729032222385854e-16, global = -5.070494772860566e-18, cumulative = -3.396818800030484e-09
