/*---------------------------------------------------------------------------*\
| =========                 |                                                 |
| \\      /  F ield         | OpenFOAM: The Open Source CFD Toolbox           |
|  \\    /   O peration     | Version:  v1912                                 |
|   \\  /    A nd           | Website:  www.openfoam.com                      |
|    \\/     M anipulation  |                                                 |
\*---------------------------------------------------------------------------*/
Build  : _f3950763fe-20191219 OPENFOAM=1912
Arch   : "LSB;label=32;scalar=64"
Exec   : rhoPimpleFoam_METRICS -parallel
Date   : Oct 27 2020
Time   : 14:53:14
Host   : r36c3t3n4
PID    : 76181
I/O    : uncollated
Case   : /lustre/cray/ws9/2/ws/hpcmcast-ashee2/HAWK/apio_64M/1024
nProcs : 1024
Hosts  :
(
    (r36c3t3n4 128)
    (r36c3t4n1 128)
    (r36c3t4n2 128)
    (r36c3t4n3 128)
    (r36c3t4n4 128)
    (r36c3t5n1 128)
    (r36c3t5n2 128)
    (r36c3t5n3 128)
)
Pstream initialized with:
    floatTransfer      : 0
    nProcsSimpleSum    : 0
    commsType          : nonBlocking
    polling iterations : 0
trapFpe: Floating point exception trapping enabled (FOAM_SIGFPE).
fileModificationChecking : Monitoring run-time modified files using timeStampMaster (fileModificationSkew 10)
allowSystemOperations : Allowing user-supplied system call operations

// * * * * * * * * * * * * * * * * * * * * * * * * * * * * * * * * * * * * * //
Create time

Create mesh for time = 0


PIMPLE: Operating solver in PISO mode

Reading thermophysical properties

Selecting thermodynamics package 
{
    type            hePsiThermo;
    mixture         pureMixture;
    transport       const;
    thermo          eConst;
    equationOfState perfectGas;
    specie          specie;
    energy          sensibleInternalEnergy;
}

Reading field U

Reading/calculating face flux field phi

--> FOAM Warning : 
    From function Foam::pressureControl::pressureControl(const volScalarField&, const volScalarField&, const Foam::dictionary&, bool)
    in file cfdTools/general/pressureControl/pressureControl.C at line 123
    Reading "/lustre/cray/ws9/2/ws/hpcmcast-ashee2/HAWK/apio_64M/1024/system/fvSolution.PIMPLE"
    'rhoMax' specified rather than 'pMax' or 'pMaxFactor'
    This is supported for backward-compatibility but 'pMax' or 'pMaxFactor' are more reliable.
--> FOAM Warning : 
    From function Foam::pressureControl::pressureControl(const volScalarField&, const volScalarField&, const Foam::dictionary&, bool)
    in file cfdTools/general/pressureControl/pressureControl.C at line 178
    Reading "/lustre/cray/ws9/2/ws/hpcmcast-ashee2/HAWK/apio_64M/1024/system/fvSolution.PIMPLE"
    'rhoMin' specified rather than 'pMin' or 'pMinFactor'
    This is supported for backward-compatibility but 'pMin' or 'pMinFactor' are more reliable.
pressureControl
    pMax 1726187.557059955
    pMin 4747.015781914877

Creating turbulence model

Selecting turbulence model type LES
Selecting LES turbulence model kEqn
Selecting LES delta type cubeRootVol
LES
{
    LESModel        kEqn;
    turbulence      on;
    printCoeffs     on;
    delta           cubeRootVol;
    cubeRootVolCoeffs
    {
        deltaCoeff      1;
    }
    PrandtlCoeffs
    {
        delta           cubeRootVol;
        cubeRootVolCoeffs
        {
            deltaCoeff      1;
        }
        smoothCoeffs
        {
            delta           cubeRootVol;
            cubeRootVolCoeffs
            {
                deltaCoeff      1;
            }
            maxDeltaRatio   1.1;
        }
        Cdelta          0.158;
    }
    vanDriestCoeffs
    {
        delta           cubeRootVol;
        cubeRootVolCoeffs
        {
            deltaCoeff      1;
        }
        smoothCoeffs
        {
            delta           cubeRootVol;
            cubeRootVolCoeffs
            {
                deltaCoeff      1;
            }
            maxDeltaRatio   1.1;
        }
        Aplus           26;
        Cdelta          0.158;
    }
    smoothCoeffs
    {
        delta           cubeRootVol;
        cubeRootVolCoeffs
        {
            deltaCoeff      1;
        }
        maxDeltaRatio   1.1;
    }
    Ce              1.048;
    Ck              0.094;
}

Creating field dpdt

Creating field kinetic energy K

No MRF models present

procNo = 48
procNo = 49
procNo = 50
procNo = 51
procNo = 52
procNo = 53
procNo = 54
procNo = 55
procNo = 56
procNo = 57
procNo = 58
procNo = 59
procNo = 60
procNo = 61
procNo = 62
procNo = 63
procNo = 64
procNo = 65
procNo = 66
procNo = 67
procNo = 68
procNo = 69
procNo = 70
procNo = 71
procNo = 72
procNo = 73
procNo = 74
procNo = 75
procNo = 76
procNo = 77
procNo = 78
procNo = 79
procNo = 80
procNo = 81
procNo = 82
procNo = 83
procNo = 84
procNo = 85
procNo = 86
procNo = 87
procNo = 88
procNo = 89
procNo = 90
procNo = 91
procNo = 92
procNo = 93
procNo = 94
procNo = 95
procNo = 96
procNo = 97
procNo = 98
procNo = 99
procNo = 100
procNo = 101
procNo = 102
procNo = 103
procNo = 104
procNo = 105
procNo = 106
procNo = 107
procNo = 108
procNo = 109
procNo = 110
procNo = 111
procNo = 112
procNo = 113
procNo = 114
procNo = 115
procNo = 116
procNo = 117
procNo = 118
procNo = 119
procNo = 120
procNo = 121
procNo = 122
procNo = 123
procNo = 124
procNo = 125
procNo = 126
procNo = 127
No finite volume options present
procNo = 0
masterNo = 0
procNo = 1
procNo = 2
procNo = 3
procNo = 4
procNo = 5
procNo = 6
procNo = 7
procNo = 8
procNo = 9
procNo = 10
procNo = 11
procNo = 12
procNo = 13
procNo = 14
procNo = 15
procNo = 16
procNo = 17
procNo = 18
procNo = 19
procNo = 20
procNo = 21
procNo = 22
procNo = 23
procNo = 24
procNo = 25
procNo = 26
procNo = 27
procNo = 28
procNo = 29
procNo = 30
procNo = 31
procNo = 32
procNo = 33
procNo = 34
procNo = 35
procNo = 36
procNo = 37
procNo = 38
procNo = 39
procNo = 40
procNo = 41
procNo = 42
procNo = 43
procNo = 44
procNo = 45
procNo = 46
procNo = 47
procNo = 128
procNo = 512
procNo = 129
procNo = 256
procNo = 640
procNo = 513
procNo = 896
procNo = 130
procNo = 257
procNo = 641
procNo = 514
procNo = 897
procNo = 131
procNo = 258
procNo = 768
procNo = 642
procNo = 515
procNo = 898
procNo = 132
procNo = 259
procNo = 769
procNo = 643
procNo = 516
procNo = 899
procNo = 384
procNo = 133
procNo = 260
procNo = 770
procNo = 644
procNo = 517
procNo = 900
procNo = 385
procNo = 134
procNo = 261
procNo = 771
procNo = 645
procNo = 518
procNo = 901
procNo = 386
procNo = 135
procNo = 262
procNo = 772
procNo = 646
procNo = 519
procNo = 902
procNo = 387
procNo = 136
procNo = 263
procNo = 773
procNo = 647
procNo = 520
procNo = 903
procNo = 388
procNo = 137
procNo = 264
procNo = 774
procNo = 648
procNo = 521
procNo = 904
procNo = 389
procNo = 265
procNo = 775
procNo = 649
procNo = 905
procNo = 390
procNo = 138
procNo = 776
procNo = 522
procNo = 391
procNo = 139
procNo = 266
procNo = 777
procNo = 650
procNo = 523
procNo = 906
procNo = 392
procNo = 140
procNo = 267
procNo = 778
procNo = 651
procNo = 524
procNo = 907
procNo = 393
procNo = 141
procNo = 268
procNo = 779
procNo = 652
procNo = 525
procNo = 908
procNo = 142
procNo = 269
procNo = 780
procNo = 653
procNo = 526
procNo = 909
procNo = 394
procNo = 143
procNo = 270
procNo = 781
procNo = 654
procNo = 527
procNo = 910
procNo = 395
procNo = 144
procNo = 271
procNo = 782
procNo = 655
procNo = 528
procNo = 911
procNo = 396
procNo = 145
procNo = 272
procNo = 783
procNo = 656
procNo = 529
procNo = 912
procNo = 397
procNo = 146
procNo = 273
procNo = 784
procNo = 657
procNo = 530
procNo = 913
procNo = 398
procNo = 147
procNo = 274
procNo = 785
procNo = 658
procNo = 531
procNo = 914
procNo = 399
procNo = 148
procNo = 275
procNo = 786
procNo = 659
procNo = 532
procNo = 915
procNo = 400
procNo = 149
procNo = 276
procNo = 787
procNo = 660
procNo = 533
procNo = 916
procNo = 401
procNo = 150
procNo = 277
procNo = 788
procNo = 661
procNo = 534
procNo = 917
procNo = 402
procNo = 151
procNo = 278
procNo = 789
procNo = 662
procNo = 535
procNo = 918
procNo = 403
procNo = 152
procNo = 279
procNo = 790
procNo = 663
procNo = 536
procNo = 919
procNo = 404
procNo = 153
procNo = 280
procNo = 791
procNo = 664
procNo = 537
procNo = 920
procNo = 405
procNo = 154
procNo = 281
procNo = 792
procNo = 665
procNo = 538
procNo = 921
procNo = 406
procNo = 155
procNo = 282
procNo = 793
procNo = 666
procNo = 539
procNo = 922
procNo = 407
procNo = 156
procNo = 283
procNo = 794
procNo = 667
procNo = 540
procNo = 923
procNo = 408
procNo = 157
procNo = 284
procNo = 795
procNo = 668
procNo = 541
procNo = 924
procNo = 409
procNo = 158
procNo = 285
procNo = 796
procNo = 669
procNo = 542
procNo = 925
procNo = 410
procNo = 159
procNo = 286
procNo = 797
procNo = 670
procNo = 543
procNo = 926
procNo = 411
procNo = 160
procNo = 287
procNo = 798
procNo = 671
procNo = 544
procNo = 927
procNo = 412
procNo = 161
procNo = 288
procNo = 799
procNo = 672
procNo = 545
procNo = 928
procNo = 413
procNo = 162
procNo = 289
procNo = 800
procNo = 673
procNo = 546
procNo = 929
procNo = 414
procNo = 163
procNo = 290
procNo = 801
procNo = 674
procNo = 547
procNo = 930
procNo = 415
procNo = 164
procNo = 291
procNo = 802
procNo = 675
procNo = 548
procNo = 931
procNo = 416
procNo = 165
procNo = 292
procNo = 803
procNo = 676
procNo = 549
procNo = 932
procNo = 417
procNo = 166
procNo = 293
procNo = 804
procNo = 677
procNo = 550
procNo = 933
procNo = 418
procNo = 167
procNo = 294
procNo = 805
procNo = 678
procNo = 551
procNo = 934
procNo = 419
procNo = 168
procNo = 295
procNo = 806
procNo = 679
procNo = 552
procNo = 935
procNo = 420
procNo = 169
procNo = 296
procNo = 807
procNo = 680
procNo = 553
procNo = 936
procNo = 421
procNo = 170
procNo = 297
procNo = 808
procNo = 681
procNo = 554
procNo = 937
procNo = 422
procNo = 171
procNo = 298
procNo = 809
procNo = 682
procNo = 555
procNo = 938
procNo = 423
procNo = 172
procNo = 299
procNo = 810
procNo = 683
procNo = 556
procNo = 939
procNo = 424
procNo = 173
procNo = 300
procNo = 811
procNo = 684
procNo = 557
procNo = 940
procNo = 425
procNo = 174
procNo = 301
procNo = 812
procNo = 685
procNo = 558
procNo = 941
procNo = 426
procNo = 175
procNo = 302
procNo = 813
procNo = 686
procNo = 559
procNo = 942
procNo = 427
procNo = 176
procNo = 303
procNo = 814
procNo = 687
procNo = 560
procNo = 943
procNo = 428
procNo = 177
procNo = 304
procNo = 815
procNo = 688
procNo = 561
procNo = 944
procNo = 429
procNo = 178
procNo = 305
procNo = 816
procNo = 689
procNo = 562
procNo = 945
procNo = 430
procNo = 179
procNo = 306
procNo = 817
procNo = 690
procNo = 563
procNo = 946
procNo = 431
procNo = 180
procNo = 307
procNo = 818
procNo = 691
procNo = 564
procNo = 947
procNo = 432
procNo = 181
procNo = 308
procNo = 819
procNo = 692
procNo = 565
procNo = 948
procNo = 433
procNo = 182
procNo = 309
procNo = 820
procNo = 693
procNo = 566
procNo = 949
procNo = 434
procNo = 183
procNo = 310
procNo = 821
procNo = 694
procNo = 567
procNo = 950
procNo = 435
procNo = 184
procNo = 311
procNo = 822
procNo = 695
procNo = 568
procNo = 951
procNo = 436
procNo = 185
Courant Number mean: 2.066056443474855e-11 max: 2.085039370078742e-05
procNo = 312
procNo = 823
procNo = 696
procNo = 569
procNo = 952
procNo = 437
procNo = 186
procNo = 313
procNo = 824
procNo = 697
procNo = 570
procNo = 953
procNo = 438
procNo = 187
procNo = 314
procNo = 825
procNo = 698
procNo = 571
procNo = 954
procNo = 439
procNo = 188
procNo = 315
procNo = 826
procNo = 699
procNo = 572
procNo = 955
procNo = 440
procNo = 189
procNo = 316
procNo = 827
procNo = 700
procNo = 573
procNo = 956
procNo = 441
procNo = 190
procNo = 317
procNo = 828
procNo = 701
procNo = 574
procNo = 957
procNo = 442
procNo = 191
procNo = 318
procNo = 829
procNo = 702
procNo = 575
procNo = 958
procNo = 443
procNo = 192
procNo = 319
procNo = 830
procNo = 703
procNo = 576
procNo = 959
procNo = 444
procNo = 193
procNo = 320
procNo = 831
procNo = 704
procNo = 577
procNo = 960
procNo = 445
procNo = 194
procNo = 321
procNo = 832
procNo = 705
procNo = 578
procNo = 961
procNo = 446
procNo = 195
procNo = 322
procNo = 833
procNo = 706
procNo = 579
procNo = 962
procNo = 447
procNo = 196
procNo = 323
procNo = 834
procNo = 707
procNo = 580
procNo = 963
procNo = 448
procNo = 197
procNo = 324
procNo = 835
procNo = 708
procNo = 581
procNo = 964
procNo = 449
procNo = 198
procNo = 325
procNo = 836
procNo = 709
procNo = 582
procNo = 965
procNo = 450
procNo = 199
procNo = 326
procNo = 837
procNo = 710
procNo = 583
procNo = 966
procNo = 451
procNo = 200
procNo = 327
procNo = 838
procNo = 711
procNo = 584
procNo = 967
procNo = 452
procNo = 201
procNo = 328
procNo = 839
procNo = 712
procNo = 585
procNo = 968
procNo = 453
procNo = 202
procNo = 329
procNo = 840
procNo = 713
procNo = 586
procNo = 969
procNo = 454
procNo = 203
procNo = 330
procNo = 841
procNo = 714
procNo = 587
procNo = 970
procNo = 455
procNo = 204
procNo = 331
procNo = 842
procNo = 715
procNo = 588
procNo = 971
procNo = 456
procNo = 205
procNo = 332
procNo = 843
procNo = 716
procNo = 589
procNo = 972
procNo = 457
procNo = 206
procNo = 333
procNo = 844
procNo = 717
procNo = 590
procNo = 973
procNo = 458
procNo = 207
procNo = 334
procNo = 845
procNo = 718
procNo = 591
procNo = 974
procNo = 459
procNo = 208
procNo = 335
procNo = 846
procNo = 719
procNo = 592
procNo = 975
procNo = 460
procNo = 209
procNo = 336
procNo = 847
procNo = 720
procNo = 593
procNo = 976
procNo = 461
procNo = 210
procNo = 337
procNo = 848
procNo = 721
procNo = 594
procNo = 977
procNo = 462
procNo = 211
procNo = 338
procNo = 849
procNo = 722
procNo = 595
procNo = 978
procNo = 463
procNo = 212
procNo = 339
procNo = 850
procNo = 723
procNo = 596
procNo = 979
procNo = 464
procNo = 213
procNo = 340
procNo = 851
procNo = 724
procNo = 597
procNo = 980
procNo = 465
procNo = 214
procNo = 341
procNo = 852
procNo = 725
procNo = 598
procNo = 981
procNo = 466
procNo = 215
procNo = 342
procNo = 853
procNo = 726
procNo = 599
procNo = 982
procNo = 467
procNo = 216
procNo = 343
procNo = 854
procNo = 727
procNo = 600
procNo = 983
procNo = 468
procNo = 217
procNo = 344
procNo = 855
procNo = 728
procNo = 601
procNo = 984
procNo = 469
procNo = 218
procNo = 345
procNo = 856
procNo = 729
procNo = 602
procNo = 985
procNo = 470
procNo = 219
procNo = 346
procNo = 857
procNo = 730
procNo = 603
procNo = 986
procNo = 471
procNo = 220
procNo = 347
procNo = 858
procNo = 731
procNo = 604
procNo = 987
procNo = 472
procNo = 221
procNo = 348
procNo = 859
procNo = 732
procNo = 605
procNo = 988
procNo = 473
procNo = 222
procNo = 349
procNo = 860
procNo = 733
procNo = 606
procNo = 989
procNo = 474
procNo = 223
procNo = 350
procNo = 861
procNo = 734
procNo = 607
procNo = 990
procNo = 475
procNo = 224
procNo = 351
procNo = 862
procNo = 735
procNo = 608
procNo = 991
procNo = 476
procNo = 225
procNo = 352
procNo = 863
procNo = 736
procNo = 609
procNo = 992
procNo = 477
procNo = 226
procNo = 353
procNo = 864
procNo = 737
procNo = 610
procNo = 993
procNo = 478
procNo = 227
procNo = 354
procNo = 865
procNo = 738
procNo = 611
procNo = 994
procNo = 479
procNo = 228
procNo = 355
procNo = 866
procNo = 739
procNo = 612
procNo = 995
procNo = 480
procNo = 229
procNo = 356
procNo = 867
procNo = 740
procNo = 613
procNo = 996
procNo = 481
procNo = 230
procNo = 357
procNo = 868
procNo = 741
procNo = 614
procNo = 997
procNo = 482
procNo = 231
procNo = 358
procNo = 869
procNo = 742
procNo = 615
procNo = 998
procNo = 483
procNo = 232
procNo = 359
procNo = 870
procNo = 743
procNo = 616
procNo = 999
procNo = 484
procNo = 233
procNo = 360
procNo = 871
procNo = 744
procNo = 617
procNo = 1000
procNo = 485
procNo = 234
procNo = 361
procNo = 872
procNo = 745
procNo = 618
procNo = 1001
procNo = 486
procNo = 235
procNo = 362
procNo = 873
procNo = 746
procNo = 619
procNo = 1002
procNo = 487
procNo = 236
procNo = 363
procNo = 874
procNo = 747
procNo = 620
procNo = 1003
procNo = 488
procNo = 237
procNo = 364
procNo = 875
procNo = 748
procNo = 621
procNo = 1004
procNo = 489
procNo = 238
procNo = 365
procNo = 876
procNo = 749
procNo = 622
procNo = 1005
procNo = 490
procNo = 239
procNo = 366
procNo = 877
procNo = 750
procNo = 623
procNo = 1006
procNo = 491
procNo = 240
procNo = 367
procNo = 878
procNo = 751
procNo = 624
procNo = 1007
procNo = 492
procNo = 241
procNo = 368
procNo = 879
procNo = 752
procNo = 625
procNo = 1008
procNo = 493
procNo = 242
procNo = 369
procNo = 880
procNo = 753
procNo = 626
procNo = 1009
procNo = 494
procNo = 243
procNo = 370
procNo = 881
procNo = 754
procNo = 627
procNo = 1010
procNo = 495
procNo = 244
procNo = 371
procNo = 882
procNo = 755
procNo = 628
procNo = 1011
procNo = 496
procNo = 245
procNo = 372
procNo = 883
procNo = 756
procNo = 629
procNo = 1012
procNo = 497
procNo = 246
procNo = 373
procNo = 884
procNo = 757
procNo = 630
procNo = 1013
procNo = 498
procNo = 247
procNo = 374
procNo = 885
procNo = 758
procNo = 631
procNo = 1014
procNo = 499
procNo = 248
procNo = 375
procNo = 886
procNo = 759
procNo = 632
procNo = 1015
procNo = 500
procNo = 249
procNo = 376
procNo = 887
procNo = 760
procNo = 633
procNo = 1016
procNo = 501
procNo = 250
procNo = 377
procNo = 888
procNo = 761
procNo = 634
procNo = 1017
procNo = 502
procNo = 251
procNo = 378
procNo = 889
procNo = 762
procNo = 635
procNo = 1018
procNo = 503
procNo = 252
procNo = 379
procNo = 890
procNo = 763
procNo = 636
procNo = 1019
procNo = 504
procNo = 253
procNo = 380
procNo = 891
procNo = 764
procNo = 637
procNo = 1020
procNo = 505
procNo = 254
procNo = 381
procNo = 892
procNo = 765
procNo = 638
procNo = 1021
procNo = 506
procNo = 255
procNo = 382
procNo = 893
procNo = 766
procNo = 639
procNo = 1022
procNo = 507

Starting time loop

procNo = 383
procNo = 894
procNo = 767
procNo = 1023
procNo = 508
procNo = 895
procNo = 509
procNo = 510
procNo = 511
Courant Number mean: 2.066056443474855e-11 max: 2.085039370078742e-05
deltaT = 1.2e-09
Time = 1.2e-09

PIMPLE: iteration 1
diagonal:  Solving for rho, Initial residual = 0, Final residual = 0, No Iterations 0
DILUPBiCG:  Solving for Ux, Initial residual = 1, Final residual = 1.891576152372251e-20, No Iterations 2
DILUPBiCG:  Solving for Uy, Initial residual = 1, Final residual = 1.556132529589554e-20, No Iterations 2
DILUPBiCG:  Solving for Uz, Initial residual = 1, Final residual = 2.37750280563213e-20, No Iterations 2
DILUPBiCG:  Solving for e, Initial residual = 0.9999980146051592, Final residual = 9.56254202169228e-20, No Iterations 2
DILUPBiCG:  Solving for p, Initial residual = 0.9999992531794573, Final residual = 1.094160228967274e-09, No Iterations 1
diagonal:  Solving for rho, Initial residual = 0, Final residual = 0, No Iterations 0
time step continuity errors : sum local = 2.473665441515369e-16, global = -2.469547123527692e-16, cumulative = -2.469547123527692e-16
DILUPBiCG:  Solving for p, Initial residual = 2.346042407340473e-07, Final residual = 4.731039987227929e-16, No Iterations 1
diagonal:  Solving for rho, Initial residual = 0, Final residual = 0, No Iterations 0
time step continuity errors : sum local = 2.677347532472781e-16, global = -2.669349502061961e-16, cumulative = -5.138896625589652e-16
DILUPBiCG:  Solving for k, Initial residual = 0.9999999978299071, Final residual = 2.37829730562502e-20, No Iterations 2
ExecutionTime = 27.84 s  ClockTime = 43 s

ORIG_COMP_STEP = 1.168790356
ORIG_IO_STEP = 10.628202
Courant Number mean: 2.479280160766932e-11 max: 2.501990921293872e-05
deltaT = 1.44e-09
Time = 2.64e-09

PIMPLE: iteration 1
diagonal:  Solving for rho, Initial residual = 0, Final residual = 0, No Iterations 0
DILUPBiCG:  Solving for Ux, Initial residual = 0.3749195243088457, Final residual = 4.295622028935803e-21, No Iterations 2
DILUPBiCG:  Solving for Uy, Initial residual = 0.3749195242890603, Final residual = 3.542679889006159e-21, No Iterations 2
DILUPBiCG:  Solving for Uz, Initial residual = 0.230759823540107, Final residual = 3.341234758502843e-21, No Iterations 2
DILUPBiCG:  Solving for e, Initial residual = 0.2307525104851437, Final residual = 1.339954235696753e-20, No Iterations 2
DILUPBiCG:  Solving for p, Initial residual = 0.2307596222427649, Final residual = 1.522337882426889e-10, No Iterations 1
diagonal:  Solving for rho, Initial residual = 0, Final residual = 0, No Iterations 0
time step continuity errors : sum local = 5.468582718789875e-16, global = -5.467622966854208e-16, cumulative = -1.060651959244386e-15
DILUPBiCG:  Solving for p, Initial residual = 1.598676711757988e-07, Final residual = 2.778119479660191e-14, No Iterations 1
diagonal:  Solving for rho, Initial residual = 0, Final residual = 0, No Iterations 0
time step continuity errors : sum local = 4.816175893238649e-16, global = -4.816121776512674e-16, cumulative = -1.542264136895653e-15
DILUPBiCG:  Solving for k, Initial residual = 0.7612498607713581, Final residual = 1.103387316821173e-20, No Iterations 2
ExecutionTime = 30.5 s  ClockTime = 57 s

ORIG_COMP_STEP = 2.570530399999999
ORIG_IO_STEP = 9.203851055999998
Courant Number mean: 2.975154167268685e-11 max: 3.002308059560315e-05
deltaT = 1.728e-09
Time = 4.368e-09

PIMPLE: iteration 1
diagonal:  Solving for rho, Initial residual = 0, Final residual = 0, No Iterations 0
DILUPBiCG:  Solving for Ux, Initial residual = 0.3231076571548787, Final residual = 5.402788402737301e-21, No Iterations 2
DILUPBiCG:  Solving for Uy, Initial residual = 0.3231076579873055, Final residual = 4.488908490028645e-21, No Iterations 2
DILUPBiCG:  Solving for Uz, Initial residual = 0.1406142643037665, Final residual = 3.017673090330679e-21, No Iterations 2
DILUPBiCG:  Solving for e, Initial residual = 0.1406074735141565, Final residual = 1.200105051398148e-20, No Iterations 2
DILUPBiCG:  Solving for p, Initial residual = 0.1406135066423408, Final residual = 1.335875658409274e-10, No Iterations 1
diagonal:  Solving for rho, Initial residual = 0, Final residual = 0, No Iterations 0
time step continuity errors : sum local = 6.610223400556375e-16, global = -6.608823100987922e-16, cumulative = -2.203146446994446e-15
DILUPBiCG:  Solving for p, Initial residual = 1.00845667904257e-07, Final residual = 1.635171150205792e-13, No Iterations 1
diagonal:  Solving for rho, Initial residual = 0, Final residual = 0, No Iterations 0
time step continuity errors : sum local = 6.455359428301009e-16, global = -6.455357144153484e-16, cumulative = -2.848682161409794e-15
DILUPBiCG:  Solving for k, Initial residual = 0.5223924253403796, Final residual = 1.123668571401846e-20, No Iterations 2
ExecutionTime = 33.55 s  ClockTime = 69 s

ORIG_COMP_STEP = 2.97896785
ORIG_IO_STEP = 11.90357415
Courant Number mean: 3.570211002151596e-11 max: 3.602653054273847e-05
deltaT = 2.0736e-09
Time = 6.4416e-09

PIMPLE: iteration 1
diagonal:  Solving for rho, Initial residual = 0, Final residual = 0, No Iterations 0
DILUPBiCG:  Solving for Ux, Initial residual = 0.286177427136188, Final residual = 7.058016110939261e-21, No Iterations 2
DILUPBiCG:  Solving for Uy, Initial residual = 0.2861774277252691, Final residual = 5.944839124797897e-21, No Iterations 2
DILUPBiCG:  Solving for Uz, Initial residual = 0.1060778808376405, Final residual = 3.450412829795983e-21, No Iterations 2
DILUPBiCG:  Solving for e, Initial residual = 0.106069601169952, Final residual = 1.352328496908e-20, No Iterations 2
DILUPBiCG:  Solving for p, Initial residual = 0.1060765630908491, Final residual = 1.451290684657362e-10, No Iterations 1
diagonal:  Solving for rho, Initial residual = 0, Final residual = 0, No Iterations 0
time step continuity errors : sum local = 3.551478783129262e-16, global = -3.524125823683182e-16, cumulative = -3.201094743778112e-15
DILUPBiCG:  Solving for p, Initial residual = 7.231600569864569e-08, Final residual = 5.706166338586551e-13, No Iterations 1
diagonal:  Solving for rho, Initial residual = 0, Final residual = 0, No Iterations 0
time step continuity errors : sum local = 3.848994181462589e-16, global = -3.843843428794702e-16, cumulative = -3.585479086657582e-15
DILUPBiCG:  Solving for k, Initial residual = 0.3755561812013656, Final residual = 1.226997284101541e-20, No Iterations 2
ExecutionTime = 36.22 s  ClockTime = 84 s

ORIG_COMP_STEP = 2.572454919999998
ORIG_IO_STEP = 10.56580187599999
Courant Number mean: 4.284290893285853e-11 max: 4.323015923841612e-05
deltaT = 2.48832e-09
Time = 8.92992e-09

PIMPLE: iteration 1
diagonal:  Solving for rho, Initial residual = 0, Final residual = 0, No Iterations 0
DILUPBiCG:  Solving for Ux, Initial residual = 0.2580115446419863, Final residual = 9.490347284517824e-21, No Iterations 2
DILUPBiCG:  Solving for Uy, Initial residual = 0.2580115452677416, Final residual = 8.16203166370185e-21, No Iterations 2
DILUPBiCG:  Solving for Uz, Initial residual = 0.08805270476337182, Final residual = 4.441054099955024e-21, No Iterations 2
DILUPBiCG:  Solving for e, Initial residual = 0.08804268763327933, Final residual = 1.705325887365156e-20, No Iterations 2
DILUPBiCG:  Solving for p, Initial residual = 0.08805069054558946, Final residual = 1.734893337307233e-10, No Iterations 1
diagonal:  Solving for rho, Initial residual = 0, Final residual = 0, No Iterations 0
time step continuity errors : sum local = 1.222216094306149e-16, global = -4.196314303349217e-17, cumulative = -3.627442229691074e-15
DILUPBiCG:  Solving for p, Initial residual = 4.054776677563715e-08, Final residual = 5.22046463467031e-14, No Iterations 1
diagonal:  Solving for rho, Initial residual = 0, Final residual = 0, No Iterations 0
time step continuity errors : sum local = 1.13569774005812e-16, global = -2.078048600376073e-17, cumulative = -3.648222715694835e-15
DILUPBiCG:  Solving for k, Initial residual = 0.2906875148632652, Final residual = 1.477508015718343e-20, No Iterations 2
ExecutionTime = 38.76 s  ClockTime = 98 s

ORIG_COMP_STEP = 2.454662751000001
ORIG_IO_STEP = 8.897233546000002
Courant Number mean: 5.141203809639012e-11 max: 5.187377896431862e-05
deltaT = 2.985983999999999e-09
Time = 1.19159e-08

PIMPLE: iteration 1
diagonal:  Solving for rho, Initial residual = 0, Final residual = 0, No Iterations 0
DILUPBiCG:  Solving for Ux, Initial residual = 0.236902698890935, Final residual = 1.314774256969167e-20, No Iterations 2
DILUPBiCG:  Solving for Uy, Initial residual = 0.2369026993587333, Final residual = 1.164264001335152e-20, No Iterations 2
DILUPBiCG:  Solving for Uz, Initial residual = 0.07712850025551395, Final residual = 6.171988967739522e-21, No Iterations 2
DILUPBiCG:  Solving for e, Initial residual = 0.07711598136075244, Final residual = 2.309712770720266e-20, No Iterations 2
DILUPBiCG:  Solving for p, Initial residual = 0.0771253806152114, Final residual = 2.188534210943871e-10, No Iterations 1
diagonal:  Solving for rho, Initial residual = 0, Final residual = 0, No Iterations 0
time step continuity errors : sum local = 3.641824987122173e-16, global = 3.627905216406963e-16, cumulative = -3.285432194054139e-15
DILUPBiCG:  Solving for p, Initial residual = 2.654841160884388e-08, Final residual = 5.119599918790434e-14, No Iterations 1
diagonal:  Solving for rho, Initial residual = 0, Final residual = 0, No Iterations 0
time step continuity errors : sum local = 3.776366986657952e-16, global = 3.72255411089224e-16, cumulative = -2.913176782964915e-15
DILUPBiCG:  Solving for k, Initial residual = 0.2385156420711394, Final residual = 1.932875710301763e-20, No Iterations 2
ExecutionTime = 41.19 s  ClockTime = 110 s

ORIG_COMP_STEP = 2.352554437999999
ORIG_IO_STEP = 11.57404383199999
Courant Number mean: 6.169524221641845e-11 max: 6.224506732903097e-05
deltaT = 3.583180799999999e-09
Time = 1.54991e-08

PIMPLE: iteration 1
diagonal:  Solving for rho, Initial residual = 0, Final residual = 0, No Iterations 0
DILUPBiCG:  Solving for Ux, Initial residual = 0.2210519062938107, Final residual = 1.873855160038109e-20, No Iterations 2
DILUPBiCG:  Solving for Uy, Initial residual = 0.2210519064156432, Final residual = 1.724970962780026e-20, No Iterations 2
DILUPBiCG:  Solving for Uz, Initial residual = 0.06989938345004305, Final residual = 9.082356295457605e-21, No Iterations 2
DILUPBiCG:  Solving for e, Initial residual = 0.06988419087189159, Final residual = 3.297410499742709e-20, No Iterations 2
DILUPBiCG:  Solving for p, Initial residual = 0.06989550677950718, Final residual = 2.856490630864746e-10, No Iterations 1
diagonal:  Solving for rho, Initial residual = 0, Final residual = 0, No Iterations 0
time step continuity errors : sum local = 3.229765300416243e-16, global = 3.216530422552899e-16, cumulative = -2.591523740709625e-15
DILUPBiCG:  Solving for p, Initial residual = 2.035401890969292e-08, Final residual = 3.70453549500542e-14, No Iterations 1
diagonal:  Solving for rho, Initial residual = 0, Final residual = 0, No Iterations 0
time step continuity errors : sum local = 3.153813998315104e-16, global = 3.145500814118619e-16, cumulative = -2.276973659297763e-15
DILUPBiCG:  Solving for k, Initial residual = 0.2042781441227921, Final residual = 2.706492813679053e-20, No Iterations 2
ExecutionTime = 44.77 s  ClockTime = 127 s

ORIG_COMP_STEP = 3.477615185000005
ORIG_IO_STEP = 15.48546133500001
Courant Number mean: 7.403545226810747e-11 max: 7.468909815230524e-05
deltaT = 4.299816959999999e-09
Time = 1.97989e-08

PIMPLE: iteration 1
diagonal:  Solving for rho, Initial residual = 0, Final residual = 0, No Iterations 0
DILUPBiCG:  Solving for Ux, Initial residual = 0.2090173327571462, Final residual = 2.741871541070183e-20, No Iterations 2
DILUPBiCG:  Solving for Uy, Initial residual = 0.2090173327336087, Final residual = 2.651716595778654e-20, No Iterations 2
DILUPBiCG:  Solving for Uz, Initial residual = 0.06483302971339334, Final residual = 1.399988886173483e-20, No Iterations 2
DILUPBiCG:  Solving for e, Initial residual = 0.06481489745612515, Final residual = 4.913402635168672e-20, No Iterations 2
DILUPBiCG:  Solving for p, Initial residual = 0.06482824549143335, Final residual = 3.815836700539263e-10, No Iterations 1
diagonal:  Solving for rho, Initial residual = 0, Final residual = 0, No Iterations 0
time step continuity errors : sum local = 1.391681215399414e-16, global = -7.307764830068714e-17, cumulative = -2.35005130759845e-15
DILUPBiCG:  Solving for p, Initial residual = 1.749735761875091e-08, Final residual = 3.48627938278538e-14, No Iterations 1
diagonal:  Solving for rho, Initial residual = 0, Final residual = 0, No Iterations 0
time step continuity errors : sum local = 1.39511118502909e-16, global = -8.719066374866348e-17, cumulative = -2.437241971347114e-15
DILUPBiCG:  Solving for k, Initial residual = 0.1805908508019388, Final residual = 4.01358746504282e-20, No Iterations 2
ExecutionTime = 54.22 s  ClockTime = 152 s

ORIG_COMP_STEP = 9.354575280999995
ORIG_IO_STEP = 14.211296315
Courant Number mean: 8.884424112147854e-11 max: 8.961976116517033e-05
deltaT = 5.159780351999998e-09
Time = 2.49587e-08

PIMPLE: iteration 1
diagonal:  Solving for rho, Initial residual = 0, Final residual = 0, No Iterations 0
DILUPBiCG:  Solving for Ux, Initial residual = 0.1997579591073818, Final residual = 4.267444819241144e-20, No Iterations 2
DILUPBiCG:  Solving for Uy, Initial residual = 0.1997579589567457, Final residual = 4.223823701527508e-20, No Iterations 2
DILUPBiCG:  Solving for Uz, Initial residual = 0.06113770784914874, Final residual = 2.245271128211961e-20, No Iterations 2
DILUPBiCG:  Solving for e, Initial residual = 0.06111598288106929, Final residual = 7.599044146049791e-20, No Iterations 2
DILUPBiCG:  Solving for p, Initial residual = 0.06113196276337016, Final residual = 5.182659844708759e-10, No Iterations 1
diagonal:  Solving for rho, Initial residual = 0, Final residual = 0, No Iterations 0
time step continuity errors : sum local = 2.871536088533526e-16, global = -2.824785738369315e-16, cumulative = -2.719720545184045e-15
DILUPBiCG:  Solving for p, Initial residual = 1.220150115509748e-08, Final residual = 2.694191495120861e-14, No Iterations 1
diagonal:  Solving for rho, Initial residual = 0, Final residual = 0, No Iterations 0
time step continuity errors : sum local = 2.824094959447275e-16, global = -2.786944471346368e-16, cumulative = -2.998414992318682e-15
DILUPBiCG:  Solving for k, Initial residual = 0.1635154008143755, Final residual = 6.256961332815819e-20, No Iterations 2
ExecutionTime = 55.66 s  ClockTime = 169 s

ORIG_COMP_STEP = 1.308220616
ORIG_IO_STEP = 10.52561171199999
Courant Number mean: 1.066155798260658e-10 max: 0.0001075334397309669
deltaT = 6.191736422399998e-09
Time = 3.11504e-08

PIMPLE: iteration 1
diagonal:  Solving for rho, Initial residual = 0, Final residual = 0, No Iterations 0
DILUPBiCG:  Solving for Ux, Initial residual = 0.19254198747403, Final residual = 6.902812967497511e-20, No Iterations 2
DILUPBiCG:  Solving for Uy, Initial residual = 0.1925419873398005, Final residual = 6.959681667637401e-20, No Iterations 2
DILUPBiCG:  Solving for Uz, Initial residual = 0.0583628192664419, Final residual = 3.728817808199128e-20, No Iterations 2
DILUPBiCG:  Solving for e, Initial residual = 0.05833679969788511, Final residual = 1.215681866861346e-19, No Iterations 2
DILUPBiCG:  Solving for p, Initial residual = 0.05835590011942179, Final residual = 7.126039030850734e-10, No Iterations 1
diagonal:  Solving for rho, Initial residual = 0, Final residual = 0, No Iterations 0
time step continuity errors : sum local = 5.192409246690773e-16, global = -5.106094298787444e-16, cumulative = -3.509024422197427e-15
DILUPBiCG:  Solving for p, Initial residual = 8.258604192560448e-09, Final residual = 2.125038390563732e-14, No Iterations 1
diagonal:  Solving for rho, Initial residual = 0, Final residual = 0, No Iterations 0
time step continuity errors : sum local = 5.253454172728884e-16, global = -5.232195846010941e-16, cumulative = -4.032244006798521e-15
DILUPBiCG:  Solving for k, Initial residual = 0.1508056956125986, Final residual = 1.019849406667012e-19, No Iterations 2
ExecutionTime = 59.05 s  ClockTime = 183 s

ORIG_COMP_STEP = 3.282109778000006
ORIG_IO_STEP = 12.33171041900002
Courant Number mean: 1.279423598881495e-10 max: 0.0001290253889150597
deltaT = 7.430083706879997e-09
Time = 3.85805e-08

PIMPLE: iteration 1
diagonal:  Solving for rho, Initial residual = 0, Final residual = 0, No Iterations 0
DILUPBiCG:  Solving for Ux, Initial residual = 0.1868537991850912, Final residual = 1.143051725505612e-19, No Iterations 2
DILUPBiCG:  Solving for Uy, Initial residual = 0.1868537990863779, Final residual = 1.183748215233531e-19, No Iterations 2
DILUPBiCG:  Solving for Uz, Initial residual = 0.05623286622777741, Final residual = 6.388531642814793e-20, No Iterations 2
DILUPBiCG:  Solving for e, Initial residual = 0.05620169859799037, Final residual = 2.00713633501486e-19, No Iterations 2
DILUPBiCG:  Solving for p, Initial residual = 0.05622459057842389, Final residual = 9.889917638552635e-10, No Iterations 1
diagonal:  Solving for rho, Initial residual = 0, Final residual = 0, No Iterations 0
time step continuity errors : sum local = 2.488284333240767e-16, global = 2.14016959160374e-16, cumulative = -3.818227047638148e-15
DILUPBiCG:  Solving for p, Initial residual = 1.03254500859624e-08, Final residual = 3.073638606801119e-14, No Iterations 1
diagonal:  Solving for rho, Initial residual = 0, Final residual = 0, No Iterations 0
time step continuity errors : sum local = 2.00546152297807e-16, global = 1.662435276339895e-16, cumulative = -3.651983520004158e-15
DILUPBiCG:  Solving for k, Initial residual = 0.1411036506613567, Final residual = 1.730588505993863e-19, No Iterations 2
ExecutionTime = 60.9 s  ClockTime = 198 s

ORIG_COMP_STEP = 1.743915900000019
ORIG_IO_STEP = 11.51939614
Courant Number mean: 1.535362429315026e-10 max: 0.0001548093385833502
deltaT = 8.916100448255996e-09
Time = 4.74966e-08

PIMPLE: iteration 1
diagonal:  Solving for rho, Initial residual = 0, Final residual = 0, No Iterations 0
DILUPBiCG:  Solving for Ux, Initial residual = 0.1823252005563252, Final residual = 1.933427077802198e-19, No Iterations 2
DILUPBiCG:  Solving for Uy, Initial residual = 0.1823252004079129, Final residual = 2.073332438491066e-19, No Iterations 2
DILUPBiCG:  Solving for Uz, Initial residual = 0.05456982741608837, Final residual = 1.125478752644969e-19, No Iterations 2
DILUPBiCG:  Solving for e, Initial residual = 0.05453249138723985, Final residual = 3.414173226278718e-19, No Iterations 2
DILUPBiCG:  Solving for p, Initial residual = 0.05455990300431418, Final residual = 1.382520353714381e-09, No Iterations 1
diagonal:  Solving for rho, Initial residual = 0, Final residual = 0, No Iterations 0
time step continuity errors : sum local = 1.550738119249872e-16, global = -7.276045040789274e-17, cumulative = -3.724743970412051e-15
DILUPBiCG:  Solving for p, Initial residual = 9.785775492437564e-09, Final residual = 3.411534529493332e-14, No Iterations 1
diagonal:  Solving for rho, Initial residual = 0, Final residual = 0, No Iterations 0
time step continuity errors : sum local = 1.533110503598346e-16, global = -1.092171813760167e-16, cumulative = -3.833961151788068e-15
DILUPBiCG:  Solving for k, Initial residual = 0.1335466811503773, Final residual = 3.046290928327134e-19, No Iterations 2
ExecutionTime = 62.59 s  ClockTime = 212 s

ORIG_COMP_STEP = 1.581176361999979
ORIG_IO_STEP = 9.249264111999992
Courant Number mean: 1.842515163808908e-10 max: 0.0001857409471672457
deltaT = 1.069932053790719e-08
Time = 5.81959e-08

PIMPLE: iteration 1
diagonal:  Solving for rho, Initial residual = 0, Final residual = 0, No Iterations 0
DILUPBiCG:  Solving for Ux, Initial residual = 0.1786887484354809, Final residual = 3.334992925973188e-19, No Iterations 2
DILUPBiCG:  Solving for Uy, Initial residual = 0.1786887483342883, Final residual = 3.734504139106864e-19, No Iterations 2
DILUPBiCG:  Solving for Uz, Initial residual = 0.05325349149515233, Final residual = 2.032657682815702e-19, No Iterations 2
DILUPBiCG:  Solving for e, Initial residual = 0.05320876710434935, Final residual = 5.974438325503362e-19, No Iterations 2
DILUPBiCG:  Solving for p, Initial residual = 0.05324158853404344, Final residual = 1.943634762744549e-09, No Iterations 1
diagonal:  Solving for rho, Initial residual = 0, Final residual = 0, No Iterations 0
time step continuity errors : sum local = 1.736780586981368e-16, global = -9.411946112123139e-17, cumulative = -3.928080612909299e-15
DILUPBiCG:  Solving for p, Initial residual = 7.218138508968087e-09, Final residual = 2.967297207286746e-14, No Iterations 1
diagonal:  Solving for rho, Initial residual = 0, Final residual = 0, No Iterations 0
time step continuity errors : sum local = 1.523939533493268e-16, global = -1.229371008219773e-16, cumulative = -4.051017713731276e-15
DILUPBiCG:  Solving for k, Initial residual = 0.1275637938279501, Final residual = 5.544632080707466e-19, No Iterations 2
ExecutionTime = 65.31 s  ClockTime = 225 s

ORIG_COMP_STEP = 2.633779524000005
ORIG_IO_STEP = 15.367135768
Courant Number mean: 2.211137773186609e-10 max: 0.0002228458487620226
deltaT = 1.283918464548863e-08
Time = 7.10351e-08

PIMPLE: iteration 1
diagonal:  Solving for rho, Initial residual = 0, Final residual = 0, No Iterations 0
DILUPBiCG:  Solving for Ux, Initial residual = 0.1757467124529797, Final residual = 5.859225822068477e-19, No Iterations 2
DILUPBiCG:  Solving for Uy, Initial residual = 0.1757467124156583, Final residual = 7.001697901137825e-19, No Iterations 2
DILUPBiCG:  Solving for Uz, Initial residual = 0.05219971917096852, Final residual = 3.752420565496306e-19, No Iterations 2
DILUPBiCG:  Solving for e, Initial residual = 0.05214606540959432, Final residual = 1.07395929704253e-18, No Iterations 2
DILUPBiCG:  Solving for p, Initial residual = 0.05218547336408149, Final residual = 2.744856737531674e-09, No Iterations 1
diagonal:  Solving for rho, Initial residual = 0, Final residual = 0, No Iterations 0
time step continuity errors : sum local = 4.911901193041187e-16, global = -4.335209232709642e-16, cumulative = -4.484538637002241e-15
DILUPBiCG:  Solving for p, Initial residual = 6.419412676289196e-09, Final residual = 3.125107724040795e-14, No Iterations 1
diagonal:  Solving for rho, Initial residual = 0, Final residual = 0, No Iterations 0
time step continuity errors : sum local = 4.330199189399038e-16, global = -4.329794485313074e-16, cumulative = -4.917518085533548e-15
DILUPBiCG:  Solving for k, Initial residual = 0.1227635706604271, Final residual = 1.040438858990692e-18, No Iterations 2
ExecutionTime = 69.05 s  ClockTime = 245 s

ORIG_COMP_STEP = 3.620260483999999
ORIG_IO_STEP = 11.478562025
Courant Number mean: 2.653544440140701e-10 max: 0.0002673531757326264
deltaT = 1.540702157458636e-08
Time = 8.64421e-08

PIMPLE: iteration 1
diagonal:  Solving for rho, Initial residual = 0, Final residual = 0, No Iterations 0
DILUPBiCG:  Solving for Ux, Initial residual = 0.1733503889122088, Final residual = 1.047351366004406e-18, No Iterations 2
DILUPBiCG:  Solving for Uy, Initial residual = 0.173350388941592, Final residual = 1.340362763008463e-18, No Iterations 2
DILUPBiCG:  Solving for Uz, Initial residual = 0.0513478353239023, Final residual = 7.060381187624488e-19, No Iterations 2
DILUPBiCG:  Solving for e, Initial residual = 0.05128358475172008, Final residual = 1.980258212542175e-18, No Iterations 2
DILUPBiCG:  Solving for p, Initial residual = 0.05133082867827765, Final residual = 3.890480600612893e-09, No Iterations 1
diagonal:  Solving for rho, Initial residual = 0, Final residual = 0, No Iterations 0
time step continuity errors : sum local = 3.289977352237581e-16, global = 2.356363329906469e-16, cumulative = -4.681881752542902e-15
DILUPBiCG:  Solving for p, Initial residual = 7.418547181975651e-09, Final residual = 4.28887877097929e-14, No Iterations 1
diagonal:  Solving for rho, Initial residual = 0, Final residual = 0, No Iterations 0
time step continuity errors : sum local = 2.465810483763708e-16, global = 2.381595780415801e-16, cumulative = -4.443722174501322e-15
DILUPBiCG:  Solving for k, Initial residual = 0.11886955426302, Final residual = 2.007271034587703e-18, No Iterations 2
ExecutionTime = 70.90000000000001 s  ClockTime = 259 s

ORIG_COMP_STEP = 1.753092506000002
ORIG_IO_STEP = 12.88077230300001
Courant Number mean: 3.184523155217647e-10 max: 0.0003207356037221298
deltaT = 1.848842588950363e-08
Time = 1.04931e-07

PIMPLE: iteration 1
diagonal:  Solving for rho, Initial residual = 0, Final residual = 0, No Iterations 0
DILUPBiCG:  Solving for Ux, Initial residual = 0.1713861681422583, Final residual = 1.90218258161043e-18, No Iterations 2
DILUPBiCG:  Solving for Uy, Initial residual = 0.1713861681905894, Final residual = 2.621158278963334e-18, No Iterations 2
DILUPBiCG:  Solving for Uz, Initial residual = 0.05065296332205974, Final residual = 1.350091044928294e-18, No Iterations 2
DILUPBiCG:  Solving for e, Initial residual = 0.05057604375970723, Final residual = 3.739730292680438e-18, No Iterations 2
DILUPBiCG:  Solving for p, Initial residual = 0.05063268431186741, Final residual = 5.530556324500824e-09, No Iterations 1
diagonal:  Solving for rho, Initial residual = 0, Final residual = 0, No Iterations 0
time step continuity errors : sum local = 4.416085238353952e-16, global = 3.031950880524506e-16, cumulative = -4.140527086448871e-15
DILUPBiCG:  Solving for p, Initial residual = 8.307073519207028e-09, Final residual = 5.727569041456754e-14, No Iterations 1
diagonal:  Solving for rho, Initial residual = 0, Final residual = 0, No Iterations 0
time step continuity errors : sum local = 2.793122436919346e-16, global = 2.759853711223677e-16, cumulative = -3.864541715326503e-15
DILUPBiCG:  Solving for k, Initial residual = 0.1156814569298854, Final residual = 3.971221417458099e-18, No Iterations 2
ExecutionTime = 73.43000000000001 s  ClockTime = 277 s

ORIG_COMP_STEP = 2.40276770700001
ORIG_IO_STEP = 13.05952414399999
Courant Number mean: 3.821836782891941e-10 max: 0.0003847571616184497
deltaT = 2.218611106740435e-08
Time = 1.27117e-07

PIMPLE: iteration 1
diagonal:  Solving for rho, Initial residual = 0, Final residual = 0, No Iterations 0
DILUPBiCG:  Solving for Ux, Initial residual = 0.1697659762770232, Final residual = 3.502547223250006e-18, No Iterations 2
DILUPBiCG:  Solving for Uy, Initial residual = 0.1697659763183491, Final residual = 5.246177269486053e-18, No Iterations 2
DILUPBiCG:  Solving for Uz, Initial residual = 0.05008116439163144, Final residual = 2.616016482393248e-18, No Iterations 2
DILUPBiCG:  Solving for e, Initial residual = 0.04998909825368107, Final residual = 7.222196551323831e-18, No Iterations 2
DILUPBiCG:  Solving for p, Initial residual = 0.05005702954763519, Final residual = 7.881065732677403e-09, No Iterations 1
diagonal:  Solving for rho, Initial residual = 0, Final residual = 0, No Iterations 0
time step continuity errors : sum local = 5.125198273380113e-16, global = -1.986066643402981e-16, cumulative = -4.063148379666801e-15
DILUPBiCG:  Solving for p, Initial residual = 9.942012013075295e-09, Final residual = 8.204239696747737e-14, No Iterations 1
diagonal:  Solving for rho, Initial residual = 0, Final residual = 0, No Iterations 0
time step continuity errors : sum local = 2.497168428038013e-16, global = -2.336410711739481e-16, cumulative = -4.296789450840749e-15
DILUPBiCG:  Solving for k, Initial residual = 0.1130508733742419, Final residual = 8.037638482438249e-18, No Iterations 2
ExecutionTime = 75.17 s  ClockTime = 293 s

ORIG_COMP_STEP = 1.600630450000011
ORIG_IO_STEP = 10.28290445599998
Courant Number mean: 4.586828152556376e-10 max: 0.0004615302830703818
deltaT = 2.662333328088522e-08
Time = 1.5374e-07

PIMPLE: iteration 1
diagonal:  Solving for rho, Initial residual = 0, Final residual = 0, No Iterations 0
DILUPBiCG:  Solving for Ux, Initial residual = 0.168420586022266, Final residual = 6.516181111546087e-18, No Iterations 2
DILUPBiCG:  Solving for Uy, Initial residual = 0.1684205860532243, Final residual = 1.078301313314403e-17, No Iterations 2
DILUPBiCG:  Solving for Uz, Initial residual = 0.04960627258582534, Final residual = 5.120551248079841e-18, No Iterations 2
DILUPBiCG:  Solving for e, Initial residual = 0.04949610193996085, Final residual = 1.424075551147018e-17, No Iterations 2
DILUPBiCG:  Solving for p, Initial residual = 0.04957759092693625, Final residual = 1.125303596754967e-08, No Iterations 1
diagonal:  Solving for rho, Initial residual = 0, Final residual = 0, No Iterations 0
time step continuity errors : sum local = 1.056040671671799e-15, global = -5.407533629880024e-16, cumulative = -4.837542813828752e-15
DILUPBiCG:  Solving for p, Initial residual = 1.302768973408476e-08, Final residual = 1.289799529067283e-13, No Iterations 1
diagonal:  Solving for rho, Initial residual = 0, Final residual = 0, No Iterations 0
time step continuity errors : sum local = 5.886046163643616e-16, global = -5.863490734086709e-16, cumulative = -5.423891887237423e-15
DILUPBiCG:  Solving for k, Initial residual = 0.1108656712397714, Final residual = 1.660535289631702e-17, No Iterations 2
ExecutionTime = 77.36 s  ClockTime = 306 s

ORIG_COMP_STEP = 2.099779786999989
ORIG_IO_STEP = 12.38071151899999
Courant Number mean: 5.505152374406925e-10 max: 0.0005535838593398173
deltaT = 3.194799993706226e-08
Time = 1.85688e-07

PIMPLE: iteration 1
diagonal:  Solving for rho, Initial residual = 0, Final residual = 0, No Iterations 0
DILUPBiCG:  Solving for Ux, Initial residual = 0.1672948818409954, Final residual = 1.218255477454807e-17, No Iterations 2
DILUPBiCG:  Solving for Uy, Initial residual = 0.1672948818583626, Final residual = 2.301207502803421e-17, No Iterations 2
DILUPBiCG:  Solving for Uz, Initial residual = 0.04920774228719253, Final residual = 1.009035957976466e-17, No Iterations 2
DILUPBiCG:  Solving for e, Initial residual = 0.04907595368027536, Final residual = 2.8626562756212e-17, No Iterations 2
DILUPBiCG:  Solving for p, Initial residual = 0.04917370408927339, Final residual = 1.609458368427024e-08, No Iterations 1
diagonal:  Solving for rho, Initial residual = 0, Final residual = 0, No Iterations 0
time step continuity errors : sum local = 9.230796971163535e-16, global = 6.016287280383127e-17, cumulative = -5.363729014433592e-15
DILUPBiCG:  Solving for p, Initial residual = 1.626747405474961e-08, Final residual = 1.939869575859732e-13, No Iterations 1
diagonal:  Solving for rho, Initial residual = 0, Final residual = 0, No Iterations 0
time step continuity errors : sum local = 1.173634932730294e-16, global = -5.079626033406938e-17, cumulative = -5.414525274767661e-15
DILUPBiCG:  Solving for k, Initial residual = 0.1090397033147088, Final residual = 3.494434746813613e-17, No Iterations 2
ExecutionTime = 79.83 s  ClockTime = 322 s

ORIG_COMP_STEP = 2.350813612999957
ORIG_IO_STEP = 17.26111085000002
Courant Number mean: 6.607665761704657e-10 max: 0.0006639444024474661
deltaT = 3.833759992447472e-08
Time = 2.24026e-07

PIMPLE: iteration 1
diagonal:  Solving for rho, Initial residual = 0, Final residual = 0, No Iterations 0
DILUPBiCG:  Solving for Ux, Initial residual = 0.1663444085873017, Final residual = 2.269532614292084e-17, No Iterations 2
DILUPBiCG:  Solving for Uy, Initial residual = 0.1663444085946018, Final residual = 5.343896421176279e-17, No Iterations 2
DILUPBiCG:  Solving for Uz, Initial residual = 0.04886915209435731, Final residual = 1.993695264336251e-17, No Iterations 2
DILUPBiCG:  Solving for e, Initial residual = 0.0487115549969918, Final residual = 5.8576980094884e-17, No Iterations 2
DILUPBiCG:  Solving for p, Initial residual = 0.04882884461741202, Final residual = 2.305167046842864e-08, No Iterations 1
diagonal:  Solving for rho, Initial residual = 0, Final residual = 0, No Iterations 0
time step continuity errors : sum local = 1.510886732854762e-15, global = 2.618820854896479e-16, cumulative = -5.152643189278013e-15
DILUPBiCG:  Solving for p, Initial residual = 2.215428121320944e-08, Final residual = 3.188842200114594e-13, No Iterations 1
diagonal:  Solving for rho, Initial residual = 0, Final residual = 0, No Iterations 0
time step continuity errors : sum local = 1.329707625724046e-16, global = 7.502260806887549e-17, cumulative = -5.077620581209137e-15
DILUPBiCG:  Solving for k, Initial residual = 0.1075057488410115, Final residual = 7.475921482029112e-17, No Iterations 2
ExecutionTime = 84.48 s  ClockTime = 345 s

ORIG_COMP_STEP = 4.504256233000035
ORIG_IO_STEP = 12.328699363
Courant Number mean: 7.9315091584511e-10 max: 0.0007962328698137052
deltaT = 4.600511990936966e-08
Time = 2.70031e-07

PIMPLE: iteration 1
diagonal:  Solving for rho, Initial residual = 0, Final residual = 0, No Iterations 0
DILUPBiCG:  Solving for Ux, Initial residual = 0.165532842250085, Final residual = 4.154114646506953e-17, No Iterations 2
DILUPBiCG:  Solving for Uy, Initial residual = 0.1655328422537184, Final residual = 1.311402258754572e-16, No Iterations 2
DILUPBiCG:  Solving for Uz, Initial residual = 0.04857713511434186, Final residual = 4.136557696914956e-17, No Iterations 2
DILUPBiCG:  Solving for e, Initial residual = 0.04838876913436165, Final residual = 1.218374967101783e-16, No Iterations 2
DILUPBiCG:  Solving for p, Initial residual = 0.04852954058013473, Final residual = 3.305594629353326e-08, No Iterations 1
diagonal:  Solving for rho, Initial residual = 0, Final residual = 0, No Iterations 0
time step continuity errors : sum local = 2.635377124090274e-15, global = 2.119011834917403e-17, cumulative = -5.056430462859963e-15
DILUPBiCG:  Solving for p, Initial residual = 3.114765125593195e-08, Final residual = 5.424469599628145e-13, No Iterations 1
diagonal:  Solving for rho, Initial residual = 0, Final residual = 0, No Iterations 0
time step continuity errors : sum local = 2.611465104300065e-16, global = -2.510886183224381e-16, cumulative = -5.307519081182402e-15
DILUPBiCG:  Solving for k, Initial residual = 0.1062106420316004, Final residual = 1.622959466945402e-16, No Iterations 2
ExecutionTime = 87.05 s  ClockTime = 361 s

ORIG_COMP_STEP = 2.465976373999979
ORIG_IO_STEP = 14.74066883400002
Courant Number mean: 9.521435221473509e-10 max: 0.0009547802819188135
deltaT = 5.520614389124359e-08
Time = 3.25237e-07

PIMPLE: iteration 1
diagonal:  Solving for rho, Initial residual = 0, Final residual = 0, No Iterations 0
DILUPBiCG:  Solving for Ux, Initial residual = 0.16483008382766, Final residual = 7.454461438168489e-17, No Iterations 2
DILUPBiCG:  Solving for Uy, Initial residual = 0.1648300838265423, Final residual = 3.794544279486105e-16, No Iterations 2
DILUPBiCG:  Solving for Uz, Initial residual = 0.04832060394764431, Final residual = 9.039535725464854e-17, No Iterations 2
DILUPBiCG:  Solving for e, Initial residual = 0.04809558913947599, Final residual = 2.57231495559973e-16, No Iterations 2
DILUPBiCG:  Solving for p, Initial residual = 0.04826457695047087, Final residual = 4.74518523950751e-08, No Iterations 1
diagonal:  Solving for rho, Initial residual = 0, Final residual = 0, No Iterations 0
time step continuity errors : sum local = 4.309956208871251e-15, global = 6.639317583061292e-16, cumulative = -4.643587322876273e-15
DILUPBiCG:  Solving for p, Initial residual = 4.422680224883997e-08, Final residual = 9.346482916488975e-13, No Iterations 1
diagonal:  Solving for rho, Initial residual = 0, Final residual = 0, No Iterations 0
time step continuity errors : sum local = 2.636763847449086e-16, global = 2.072276854621539e-16, cumulative = -4.436359637414119e-15
DILUPBiCG:  Solving for k, Initial residual = 0.1051118191386579, Final residual = 3.568945025928542e-16, No Iterations 2
ExecutionTime = 92.42 s  ClockTime = 381 s

ORIG_COMP_STEP = 5.254795507999972
ORIG_IO_STEP = 14.20774657700002
Courant Number mean: 1.143144601513099e-09 max: 0.001144766058994427
deltaT = 6.62473726694923e-08
Time = 3.91484e-07

PIMPLE: iteration 1
diagonal:  Solving for rho, Initial residual = 0, Final residual = 0, No Iterations 0
DILUPBiCG:  Solving for Ux, Initial residual = 0.164210809014358, Final residual = 1.899306319206513e-16, No Iterations 2
DILUPBiCG:  Solving for Uy, Initial residual = 0.1642108090121494, Final residual = 1.336624806232725e-15, No Iterations 2
DILUPBiCG:  Solving for Uz, Initial residual = 0.04809017019525568, Final residual = 2.05351012807668e-16, No Iterations 2
DILUPBiCG:  Solving for e, Initial residual = 0.04782162233247797, Final residual = 5.505044571926115e-16, No Iterations 2
DILUPBiCG:  Solving for p, Initial residual = 0.04802450506962617, Final residual = 6.818079581275382e-08, No Iterations 1
diagonal:  Solving for rho, Initial residual = 0, Final residual = 0, No Iterations 0
time step continuity errors : sum local = 7.304517032012883e-15, global = 1.062394939980352e-15, cumulative = -3.373964697433767e-15
DILUPBiCG:  Solving for p, Initial residual = 6.329852626876635e-08, Final residual = 3.08609464525098e-19, No Iterations 2
diagonal:  Solving for rho, Initial residual = 0, Final residual = 0, No Iterations 0
time step continuity errors : sum local = 2.363272582802289e-16, global = 2.25905501528261e-16, cumulative = -3.148059195905506e-15
DILUPBiCG:  Solving for k, Initial residual = 0.1041748254815635, Final residual = 7.936474188941507e-16, No Iterations 2
ExecutionTime = 94.94 s  ClockTime = 399 s

ORIG_COMP_STEP = 2.360067655000023
ORIG_IO_STEP = 9.030317808999996
Courant Number mean: 1.372683189744152e-09 max: 0.001372384141132486
deltaT = 7.949684720339076e-08
Time = 4.70981e-07

PIMPLE: iteration 1
diagonal:  Solving for rho, Initial residual = 0, Final residual = 0, No Iterations 0
DILUPBiCG:  Solving for Ux, Initial residual = 0.1636533444643204, Final residual = 6.033872232524246e-16, No Iterations 2
DILUPBiCG:  Solving for Uy, Initial residual = 0.1636533444578238, Final residual = 7.741943427184611e-15, No Iterations 2
DILUPBiCG:  Solving for Uz, Initial residual = 0.04787770355056968, Final residual = 5.019434855907837e-16, No Iterations 2
DILUPBiCG:  Solving for e, Initial residual = 0.04755752939653399, Final residual = 1.192606072943917e-15, No Iterations 2
DILUPBiCG:  Solving for p, Initial residual = 0.04780112237424278, Final residual = 9.804807929939888e-08, No Iterations 1
diagonal:  Solving for rho, Initial residual = 0, Final residual = 0, No Iterations 0
time step continuity errors : sum local = 1.240070184428544e-14, global = 1.630548954853295e-15, cumulative = -1.517510241052211e-15
DILUPBiCG:  Solving for p, Initial residual = 9.136076769119737e-08, Final residual = 9.355892071544529e-19, No Iterations 2
diagonal:  Solving for rho, Initial residual = 0, Final residual = 0, No Iterations 0
time step continuity errors : sum local = 1.479326066018233e-16, global = 1.24963910636633e-16, cumulative = -1.392546330415578e-15
DILUPBiCG:  Solving for k, Initial residual = 0.1033714889473389, Final residual = 1.788676821947992e-15, No Iterations 2
ExecutionTime = 99.34999999999999 s  ClockTime = 412 s

ORIG_COMP_STEP = 4.350909817999991
ORIG_IO_STEP = 11.54342723600001
Courant Number mean: 1.648673951170188e-09 max: 0.001645043660238183
deltaT = 9.53962166440689e-08
Time = 5.66377e-07

PIMPLE: iteration 1
diagonal:  Solving for rho, Initial residual = 0, Final residual = 0, No Iterations 0
DILUPBiCG:  Solving for Ux, Initial residual = 0.1631387974724104, Final residual = 1.998670031783687e-15, No Iterations 2
DILUPBiCG:  Solving for Uy, Initial residual = 0.163138797466424, Final residual = 1.193313912530622e-14, No Iterations 2
DILUPBiCG:  Solving for Uz, Initial residual = 0.04767599177164193, Final residual = 1.277908486861823e-15, No Iterations 2
DILUPBiCG:  Solving for e, Initial residual = 0.04729473484050336, Final residual = 2.611749338569886e-15, No Iterations 2
DILUPBiCG:  Solving for p, Initial residual = 0.04758721639824481, Final residual = 1.411105041285578e-07, No Iterations 1
diagonal:  Solving for rho, Initial residual = 0, Final residual = 0, No Iterations 0
time step continuity errors : sum local = 2.163482288173812e-14, global = 3.106659584934528e-15, cumulative = 1.714113254518951e-15
DILUPBiCG:  Solving for p, Initial residual = 1.320340363029752e-07, Final residual = 2.849619843117094e-18, No Iterations 2
diagonal:  Solving for rho, Initial residual = 0, Final residual = 0, No Iterations 0
time step continuity errors : sum local = 5.100258364779965e-16, global = 5.034096510496538e-16, cumulative = 2.217522905568605e-15
DILUPBiCG:  Solving for k, Initial residual = 0.1026785526779152, Final residual = 4.075778051387604e-15, No Iterations 2
ExecutionTime = 108.28 s  ClockTime = 436 s

ORIG_COMP_STEP = 8.824461342999996
ORIG_IO_STEP = 6.550449126999979
Courant Number mean: 1.980745283248282e-09 max: 0.001971613580790708
deltaT = 1.144754599728827e-07
Time = 6.80853e-07

PIMPLE: iteration 1
diagonal:  Solving for rho, Initial residual = 0, Final residual = 0, No Iterations 0
DILUPBiCG:  Solving for Ux, Initial residual = 0.1626503755454687, Final residual = 7.368219048805163e-15, No Iterations 2
DILUPBiCG:  Solving for Uy, Initial residual = 0.1626503755410507, Final residual = 9.05547664105469e-15, No Iterations 2
DILUPBiCG:  Solving for Uz, Initial residual = 0.0474784788089057, Final residual = 3.415751173679877e-15, No Iterations 2
DILUPBiCG:  Solving for e, Initial residual = 0.04702517998696359, Final residual = 5.773636337150582e-15, No Iterations 2
DILUPBiCG:  Solving for p, Initial residual = 0.04737633547971729, Final residual = 2.032397116232525e-07, No Iterations 1
diagonal:  Solving for rho, Initial residual = 0, Final residual = 0, No Iterations 0
time step continuity errors : sum local = 3.665971787069375e-14, global = 4.419715375683636e-15, cumulative = 6.637238281252241e-15
DILUPBiCG:  Solving for p, Initial residual = 1.918102172976889e-07, Final residual = 8.74887829420691e-18, No Iterations 2
diagonal:  Solving for rho, Initial residual = 0, Final residual = 0, No Iterations 0
time step continuity errors : sum local = 1.774838070207691e-16, global = -1.341109039813312e-16, cumulative = 6.50312737727091e-15
DILUPBiCG:  Solving for k, Initial residual = 0.1020766852074717, Final residual = 9.362458445638318e-15, No Iterations 2
ExecutionTime = 122.5 s  ClockTime = 458 s

ORIG_COMP_STEP = 14.23818497599996
ORIG_IO_STEP = 13.18223527799995
Courant Number mean: 2.380665807843785e-09 max: 0.002362724964311186
deltaT = 1.373705519674592e-07
Time = 8.18223e-07

PIMPLE: iteration 1
diagonal:  Solving for rho, Initial residual = 0, Final residual = 0, No Iterations 0
DILUPBiCG:  Solving for Ux, Initial residual = 0.1621728659844024, Final residual = 3.966285631860576e-14, No Iterations 2
DILUPBiCG:  Solving for Uy, Initial residual = 0.1621728659809129, Final residual = 3.027299796131467e-14, No Iterations 2
DILUPBiCG:  Solving for Uz, Initial residual = 0.04727908020815501, Final residual = 9.845252330006464e-15, No Iterations 2
DILUPBiCG:  Solving for e, Initial residual = 0.04674109752618207, Final residual = 1.286527493462375e-14, No Iterations 2
DILUPBiCG:  Solving for p, Initial residual = 0.04716262260886394, Final residual = 2.929420395701062e-07, No Iterations 1
diagonal:  Solving for rho, Initial residual = 0, Final residual = 0, No Iterations 0
time step continuity errors : sum local = 6.327374509770727e-14, global = 8.274497707841702e-15, cumulative = 1.477762508511261e-14
DILUPBiCG:  Solving for p, Initial residual = 2.795190960616901e-07, Final residual = 2.703747448758907e-17, No Iterations 2
diagonal:  Solving for rho, Initial residual = 0, Final residual = 0, No Iterations 0
time step continuity errors : sum local = 2.595045451225147e-16, global = 2.4503303026979e-16, cumulative = 1.50226581153824e-14
DILUPBiCG:  Solving for k, Initial residual = 0.1015496993643874, Final residual = 2.165447616073723e-14, No Iterations 2
ExecutionTime = 124.43 s  ClockTime = 474 s

ORIG_COMP_STEP = 1.79321459099998
ORIG_IO_STEP = 12.69054055099997
Courant Number mean: 2.86290993592056e-09 max: 0.002831151431748021
deltaT = 1.64844662360951e-07
Time = 9.83068e-07

PIMPLE: iteration 1
diagonal:  Solving for rho, Initial residual = 0, Final residual = 0, No Iterations 0
DILUPBiCG:  Solving for Ux, Initial residual = 0.161692261509042, Final residual = 1.818009690046451e-13, No Iterations 2
DILUPBiCG:  Solving for Uy, Initial residual = 0.1616922615067025, Final residual = 9.784953807586483e-14, No Iterations 2
DILUPBiCG:  Solving for Uz, Initial residual = 0.04707203828875733, Final residual = 3.258597838529717e-14, No Iterations 2
DILUPBiCG:  Solving for e, Initial residual = 0.04643494736736771, Final residual = 2.900073293237006e-14, No Iterations 2
DILUPBiCG:  Solving for p, Initial residual = 0.04694076306005388, Final residual = 4.225534722314767e-07, No Iterations 1
diagonal:  Solving for rho, Initial residual = 0, Final residual = 0, No Iterations 0
time step continuity errors : sum local = 1.090818693559968e-13, global = 1.441830522341745e-14, cumulative = 2.944096333879985e-14
DILUPBiCG:  Solving for p, Initial residual = 4.082341264854207e-07, Final residual = 8.409651481083157e-17, No Iterations 2
diagonal:  Solving for rho, Initial residual = 0, Final residual = 0, No Iterations 0
time step continuity errors : sum local = 2.026987337977943e-16, global = 1.949592867711213e-16, cumulative = 2.963592262557097e-14
DILUPBiCG:  Solving for k, Initial residual = 0.1010839782498105, Final residual = 5.037459388375292e-14, No Iterations 2
ExecutionTime = 126.16 s  ClockTime = 489 s

ORIG_COMP_STEP = 1.60684108099997
ORIG_IO_STEP = 23.79239810999997
Courant Number mean: 3.445424698003071e-09 max: 0.003392299833765513
deltaT = 1.978135948331412e-07
Time = 1.18088e-06

PIMPLE: iteration 1
diagonal:  Solving for rho, Initial residual = 0, Final residual = 0, No Iterations 0
DILUPBiCG:  Solving for Ux, Initial residual = 0.1611955280847699, Final residual = 1.06769650639869e-13, No Iterations 2
DILUPBiCG:  Solving for Uy, Initial residual = 0.1611955280828458, Final residual = 3.083396812869382e-13, No Iterations 2
DILUPBiCG:  Solving for Uz, Initial residual = 0.04685187130843733, Final residual = 1.439599631879221e-13, No Iterations 2
DILUPBiCG:  Solving for e, Initial residual = 0.04609939244044013, Final residual = 6.584612051018963e-14, No Iterations 2
DILUPBiCG:  Solving for p, Initial residual = 0.04670597402060843, Final residual = 6.099831538874708e-07, No Iterations 1
diagonal:  Solving for rho, Initial residual = 0, Final residual = 0, No Iterations 0
time step continuity errors : sum local = 1.885704940026617e-13, global = 2.458314807254429e-14, cumulative = 5.421907069811526e-14
DILUPBiCG:  Solving for p, Initial residual = 5.972510886722382e-07, Final residual = 2.636007200057661e-16, No Iterations 2
diagonal:  Solving for rho, Initial residual = 0, Final residual = 0, No Iterations 0
time step continuity errors : sum local = 5.897897037041172e-16, global = -5.880581208336944e-16, cumulative = 5.363101257728156e-14
DILUPBiCG:  Solving for k, Initial residual = 0.100668044114647, Final residual = 1.177515660864159e-13, No Iterations 2
ExecutionTime = 129.55 s  ClockTime = 517 s

ORIG_COMP_STEP = 3.194481510000003
ORIG_IO_STEP = 8.210671249000029
Courant Number mean: 4.150694228542416e-09 max: 0.004064862143586241
deltaT = 2.373763137997695e-07
Time = 1.41826e-06

PIMPLE: iteration 1
diagonal:  Solving for rho, Initial residual = 0, Final residual = 0, No Iterations 0
DILUPBiCG:  Solving for Ux, Initial residual = 0.1606705318824887, Final residual = 1.910839686291485e-13, No Iterations 2
DILUPBiCG:  Solving for Uy, Initial residual = 0.1606705318811895, Final residual = 9.484517536194217e-13, No Iterations 2
DILUPBiCG:  Solving for Uz, Initial residual = 0.04661339291597517, Final residual = 3.947474289102565e-18, No Iterations 3
DILUPBiCG:  Solving for e, Initial residual = 0.0457274342877256, Final residual = 1.502509485096815e-13, No Iterations 2
DILUPBiCG:  Solving for p, Initial residual = 0.04645412291241491, Final residual = 8.812603187737673e-07, No Iterations 1
diagonal:  Solving for rho, Initial residual = 0, Final residual = 0, No Iterations 0
time step continuity errors : sum local = 3.248026464997429e-13, global = 4.47012582025593e-14, cumulative = 9.833227077984086e-14
DILUPBiCG:  Solving for p, Initial residual = 8.754944737196755e-07, Final residual = 8.357670707320532e-16, No Iterations 2
diagonal:  Solving for rho, Initial residual = 0, Final residual = 0, No Iterations 0
time step continuity errors : sum local = 1.276238158835025e-16, global = -3.356613159485921e-19, cumulative = 9.833193511852491e-14
DILUPBiCG:  Solving for k, Initial residual = 0.1002922723332289, Final residual = 2.763515125083466e-13, No Iterations 2
ExecutionTime = 137.89 s  ClockTime = 534 s

ORIG_COMP_STEP = 8.303654775000041
ORIG_IO_STEP = 8.961325278000004
Courant Number mean: 5.007252814983826e-09 max: 0.004871711167601578
deltaT = 2.848515765597234e-07
Time = 1.70311e-06

PIMPLE: iteration 1
diagonal:  Solving for rho, Initial residual = 0, Final residual = 0, No Iterations 0
DILUPBiCG:  Solving for Ux, Initial residual = 0.1601061550297593, Final residual = 5.176259579617787e-13, No Iterations 2
DILUPBiCG:  Solving for Uy, Initial residual = 0.1601061550290431, Final residual = 3.154111424460898e-18, No Iterations 3
DILUPBiCG:  Solving for Uz, Initial residual = 0.04635182046511964, Final residual = 6.839251443652693e-13, No Iterations 2
DILUPBiCG:  Solving for e, Initial residual = 0.04531268211809577, Final residual = 3.4409198851914e-13, No Iterations 2
DILUPBiCG:  Solving for p, Initial residual = 0.04618192338266391, Final residual = 1.274255846688058e-06, No Iterations 1
diagonal:  Solving for rho, Initial residual = 0, Final residual = 0, No Iterations 0
time step continuity errors : sum local = 5.608170518466483e-13, global = 7.991175738827608e-14, cumulative = 1.78243692506801e-13
DILUPBiCG:  Solving for p, Initial residual = 1.285089016408189e-06, Final residual = 2.674676394769936e-15, No Iterations 2
diagonal:  Solving for rho, Initial residual = 0, Final residual = 0, No Iterations 0
time step continuity errors : sum local = 1.523279311372332e-16, global = 1.210799400996826e-16, cumulative = 1.783647724469007e-13
DILUPBiCG:  Solving for k, Initial residual = 0.09994863968543971, Final residual = 6.507463655530992e-13, No Iterations 2
ExecutionTime = 154.69 s  ClockTime = 560 s

ORIG_COMP_STEP = 16.80553059000005
ORIG_IO_STEP = 10.04228033499999
Courant Number mean: 6.051884248587632e-09 max: 0.005841174884376685
deltaT = 3.41821891871668e-07
Time = 2.04493e-06

PIMPLE: iteration 1
diagonal:  Solving for rho, Initial residual = 0, Final residual = 0, No Iterations 0
DILUPBiCG:  Solving for Ux, Initial residual = 0.159492644203993, Final residual = 1.636443240456869e-17, No Iterations 3
DILUPBiCG:  Solving for Uy, Initial residual = 0.1594926442050399, Final residual = 1.243234006585269e-17, No Iterations 3
DILUPBiCG:  Solving for Uz, Initial residual = 0.04606310217091569, Final residual = 9.742771519495243e-13, No Iterations 2
DILUPBiCG:  Solving for e, Initial residual = 0.04484987093442568, Final residual = 7.897787133388368e-13, No Iterations 2
DILUPBiCG:  Solving for p, Initial residual = 0.04588727558962281, Final residual = 1.844118051617347e-06, No Iterations 1
diagonal:  Solving for rho, Initial residual = 0, Final residual = 0, No Iterations 0
time step continuity errors : sum local = 9.683532990223467e-13, global = 1.427845790981491e-13, cumulative = 3.211493515450497e-13
DILUPBiCG:  Solving for p, Initial residual = 1.888327379967579e-06, Final residual = 8.643450113110665e-15, No Iterations 2
diagonal:  Solving for rho, Initial residual = 0, Final residual = 0, No Iterations 0
time step continuity errors : sum local = 1.923799634191703e-16, global = -1.736366779558705e-16, cumulative = 3.209757148670939e-13
DILUPBiCG:  Solving for k, Initial residual = 0.09963055187473918, Final residual = 1.194459646453866e-17, No Iterations 3
ExecutionTime = 162.09 s  ClockTime = 578 s

ORIG_COMP_STEP = 7.305008254999962
ORIG_IO_STEP = 8.248074917000054
Courant Number mean: 7.332882700710774e-09 max: 0.007008909709147809
deltaT = 4.101862702460016e-07
Time = 2.45512e-06

PIMPLE: iteration 1
diagonal:  Solving for rho, Initial residual = 0, Final residual = 0, No Iterations 0
DILUPBiCG:  Solving for Ux, Initial residual = 0.1588222499044468, Final residual = 6.10978561347683e-17, No Iterations 3
DILUPBiCG:  Solving for Uy, Initial residual = 0.1588222499107889, Final residual = 5.00691730232391e-17, No Iterations 3
DILUPBiCG:  Solving for Uz, Initial residual = 0.0457444279515131, Final residual = 8.677144128153649e-17, No Iterations 3
DILUPBiCG:  Solving for e, Initial residual = 0.04433566622586676, Final residual = 1.850415712677989e-17, No Iterations 3
DILUPBiCG:  Solving for p, Initial residual = 0.04556973151053332, Final residual = 2.671194001178762e-06, No Iterations 1
diagonal:  Solving for rho, Initial residual = 0, Final residual = 0, No Iterations 0
time step continuity errors : sum local = 1.671904568834431e-12, global = 2.566153639827703e-13, cumulative = 5.775910788498641e-13
DILUPBiCG:  Solving for p, Initial residual = 2.775757687375639e-06, Final residual = 2.842818357376843e-14, No Iterations 2
diagonal:  Solving for rho, Initial residual = 0, Final residual = 0, No Iterations 0
time step continuity errors : sum local = 1.892654931185957e-16, global = -1.709744339956799e-16, cumulative = 5.774201044158685e-13
DILUPBiCG:  Solving for k, Initial residual = 0.09933265615028737, Final residual = 4.707332296974947e-17, No Iterations 3
ExecutionTime = 171.06 s  ClockTime = 596 s

ORIG_COMP_STEP = 8.932506056999955
ORIG_IO_STEP = 15.60290739300001
Courant Number mean: 8.914965519917508e-09 max: 0.008420730821229176
deltaT = 4.922235242952019e-07
Time = 2.94734e-06

PIMPLE: iteration 1
diagonal:  Solving for rho, Initial residual = 0, Final residual = 0, No Iterations 0
DILUPBiCG:  Solving for Ux, Initial residual = 0.1580902151568423, Final residual = 2.350442241083113e-16, No Iterations 3
DILUPBiCG:  Solving for Uy, Initial residual = 0.1580902151795259, Final residual = 2.044367824171723e-16, No Iterations 3
DILUPBiCG:  Solving for Uz, Initial residual = 0.04539499463768729, Final residual = 3.12529378181193e-16, No Iterations 3
DILUPBiCG:  Solving for e, Initial residual = 0.04376989925805216, Final residual = 7.099323019882361e-17, No Iterations 3
DILUPBiCG:  Solving for p, Initial residual = 0.04523114810739685, Final residual = 3.872519509450392e-06, No Iterations 1
diagonal:  Solving for rho, Initial residual = 0, Final residual = 0, No Iterations 0
time step continuity errors : sum local = 2.886090770634515e-12, global = 4.625729417169236e-13, cumulative = 1.039993046132792e-12
DILUPBiCG:  Solving for p, Initial residual = 4.078651988123283e-06, Final residual = 9.506710067604317e-14, No Iterations 2
diagonal:  Solving for rho, Initial residual = 0, Final residual = 0, No Iterations 0
time step continuity errors : sum local = 1.323238039198567e-16, global = 1.404671197651415e-17, cumulative = 1.040007092844769e-12
DILUPBiCG:  Solving for k, Initial residual = 0.09905055615110536, Final residual = 1.828541996940843e-16, No Iterations 3
ExecutionTime = 180.25 s  ClockTime = 621 s

ORIG_COMP_STEP = 9.082965452999929
ORIG_IO_STEP = 13.81422360700003
Courant Number mean: 1.088675857015766e-08 max: 0.01013697506912721
deltaT = 5.906682291542422e-07
Time = 3.53801e-06

PIMPLE: iteration 1
diagonal:  Solving for rho, Initial residual = 0, Final residual = 0, No Iterations 0
DILUPBiCG:  Solving for Ux, Initial residual = 0.157296155456173, Final residual = 9.234123344802867e-16, No Iterations 3
DILUPBiCG:  Solving for Uy, Initial residual = 0.1572961555172328, Final residual = 8.395637875433493e-16, No Iterations 3
DILUPBiCG:  Solving for Uz, Initial residual = 0.04501722019545397, Final residual = 1.176631112554938e-15, No Iterations 3
DILUPBiCG:  Solving for e, Initial residual = 0.04315726282339737, Final residual = 2.698701451673882e-16, No Iterations 3
DILUPBiCG:  Solving for p, Initial residual = 0.0448800682350712, Final residual = 5.618272679601307e-06, No Iterations 1
diagonal:  Solving for rho, Initial residual = 0, Final residual = 0, No Iterations 0
time step continuity errors : sum local = 4.981335048753302e-12, global = 8.343286489891515e-13, cumulative = 1.87433574183392e-12
DILUPBiCG:  Solving for p, Initial residual = 5.981531094454398e-06, Final residual = 3.225007026950388e-13, No Iterations 2
diagonal:  Solving for rho, Initial residual = 0, Final residual = 0, No Iterations 0
time step continuity errors : sum local = 2.800896927069537e-16, global = 2.701786199082377e-16, cumulative = 1.874605920453829e-12
DILUPBiCG:  Solving for k, Initial residual = 0.09878028334212306, Final residual = 6.990757597644511e-16, No Iterations 3
ExecutionTime = 183.36 s  ClockTime = 639 s

ORIG_COMP_STEP = 2.935044643000083
ORIG_IO_STEP = 16.99231120399998
Courant Number mean: 1.337218854627089e-08 max: 0.01223925494040505
deltaT = 7.088018749850907e-07
Time = 4.24681e-06

PIMPLE: iteration 1
diagonal:  Solving for rho, Initial residual = 0, Final residual = 0, No Iterations 0
DILUPBiCG:  Solving for Ux, Initial residual = 0.1564459266975142, Final residual = 3.682437258100701e-15, No Iterations 3
DILUPBiCG:  Solving for Uy, Initial residual = 0.1564459268121524, Final residual = 3.475241700727361e-15, No Iterations 3
DILUPBiCG:  Solving for Uz, Initial residual = 0.04461842240799259, Final residual = 4.545247796289488e-15, No Iterations 3
DILUPBiCG:  Solving for e, Initial residual = 0.04251036587081426, Final residual = 1.016473048871556e-15, No Iterations 3
DILUPBiCG:  Solving for p, Initial residual = 0.0445279600959315, Final residual = 8.154877992171356e-06, No Iterations 1
diagonal:  Solving for rho, Initial residual = 0, Final residual = 0, No Iterations 0
time step continuity errors : sum local = 8.593387134197596e-12, global = 1.501044753732616e-12, cumulative = 3.375650674186444e-12
DILUPBiCG:  Solving for p, Initial residual = 8.742721831481893e-06, Final residual = 1.767340781864857e-16, No Iterations 3
diagonal:  Solving for rho, Initial residual = 0, Final residual = 0, No Iterations 0
time step continuity errors : sum local = 2.154314826422845e-16, global = -2.00485716465453e-16, cumulative = 3.375450188469979e-12
DILUPBiCG:  Solving for k, Initial residual = 0.09851729355533446, Final residual = 2.627592677261622e-15, No Iterations 3
ExecutionTime = 187.76 s  ClockTime = 661 s

ORIG_COMP_STEP = 4.262787116000027
ORIG_IO_STEP = 11.01224170800003
Courant Number mean: 1.65477652974548e-08 max: 0.01484090829603863
deltaT = 8.505622499821088e-07
Time = 5.09737e-06

PIMPLE: iteration 1
diagonal:  Solving for rho, Initial residual = 0, Final residual = 0, No Iterations 0
DILUPBiCG:  Solving for Ux, Initial residual = 0.1555535917905274, Final residual = 1.486310480122803e-14, No Iterations 3
DILUPBiCG:  Solving for Uy, Initial residual = 0.1555535919950116, Final residual = 1.454040751094766e-14, No Iterations 3
DILUPBiCG:  Solving for Uz, Initial residual = 0.04421301756252273, Final residual = 1.77935801285657e-14, No Iterations 3
DILUPBiCG:  Solving for e, Initial residual = 0.04185200038886665, Final residual = 3.732876562376886e-15, No Iterations 3
DILUPBiCG:  Solving for p, Initial residual = 0.04418243847429277, Final residual = 1.183688637374502e-05, No Iterations 1
diagonal:  Solving for rho, Initial residual = 0, Final residual = 0, No Iterations 0
time step continuity errors : sum local = 1.481262961219588e-11, global = 2.690677831908702e-12, cumulative = 6.066128020378681e-12
DILUPBiCG:  Solving for p, Initial residual = 1.27254038188751e-05, Final residual = 7.417691248026707e-16, No Iterations 3
diagonal:  Solving for rho, Initial residual = 0, Final residual = 0, No Iterations 0
time step continuity errors : sum local = 2.666630396990591e-16, global = 1.85909404607947e-16, cumulative = 6.066313929783289e-12
DILUPBiCG:  Solving for k, Initial residual = 0.0982546520717406, Final residual = 9.701618604047277e-15, No Iterations 3
ExecutionTime = 189.91 s  ClockTime = 675 s

ORIG_COMP_STEP = 2.035466959000019
ORIG_IO_STEP = 14.28834789200005
Courant Number mean: 2.066891572159865e-08 max: 0.01810326064384244
deltaT = 1.02067469997853e-06
Time = 6.11805e-06

PIMPLE: iteration 1
diagonal:  Solving for rho, Initial residual = 0, Final residual = 0, No Iterations 0
DILUPBiCG:  Solving for Ux, Initial residual = 0.1546427280194971, Final residual = 6.081328937328505e-14, No Iterations 3
DILUPBiCG:  Solving for Uy, Initial residual = 0.1546427281571206, Final residual = 6.203706857787745e-14, No Iterations 3
DILUPBiCG:  Solving for Uz, Initial residual = 0.04382509658629475, Final residual = 6.99482578202916e-14, No Iterations 3
DILUPBiCG:  Solving for e, Initial residual = 0.04121594131396496, Final residual = 1.322020797311684e-14, No Iterations 3
DILUPBiCG:  Solving for p, Initial residual = 0.04386317671732845, Final residual = 1.716875438044794e-05, No Iterations 1
diagonal:  Solving for rho, Initial residual = 0, Final residual = 0, No Iterations 0
time step continuity errors : sum local = 2.549569686989847e-11, global = 4.77223508364703e-12, cumulative = 1.083854901343032e-11
DILUPBiCG:  Solving for p, Initial residual = 1.839369133161817e-05, Final residual = 3.179283436860901e-15, No Iterations 3
diagonal:  Solving for rho, Initial residual = 0, Final residual = 0, No Iterations 0
time step continuity errors : sum local = 1.8238328600166e-16, global = -5.254195996349724e-17, cumulative = 1.083849647147035e-11
DILUPBiCG:  Solving for k, Initial residual = 0.09797999113030716, Final residual = 3.516124763916323e-14, No Iterations 3
ExecutionTime = 197.72 s  ClockTime = 698 s

ORIG_COMP_STEP = 7.720365297000058
ORIG_IO_STEP = 18.49485559600009
Courant Number mean: 2.61090127912073e-08 max: 0.02226018395179666
deltaT = 1.224809639974236e-06
Time = 7.34286e-06

PIMPLE: iteration 1
[...]
ExecutionTime = 1736.54 s  ClockTime = 9747 s

ORIG_COMP_STEP = 40.51633134300027
ORIG_IO_STEP = 55.61900653699922
Courant Number mean: 2.171294260764786e-06 max: 0.2001604673022786
deltaT = 2.740283298063167e-06
Time = 0.000170566

PIMPLE: iteration 1
diagonal:  Solving for rho, Initial residual = 0, Final residual = 0, No Iterations 0
DILUPBiCG:  Solving for Ux, Initial residual = 0.01634307361117833, Final residual = 7.413828199562289e-14, No Iterations 5
DILUPBiCG:  Solving for Uy, Initial residual = 0.01634264917673518, Final residual = 1.453827996007997e-13, No Iterations 5
DILUPBiCG:  Solving for Uz, Initial residual = 0.008071224580709935, Final residual = 1.996128887590813e-13, No Iterations 5
DILUPBiCG:  Solving for e, Initial residual = 0.01129146507774991, Final residual = 6.406021230818281e-13, No Iterations 4
DILUPBiCG:  Solving for p, Initial residual = 0.01468259731436134, Final residual = 3.111566492082896e-05, No Iterations 1
diagonal:  Solving for rho, Initial residual = 0, Final residual = 0, No Iterations 0
time step continuity errors : sum local = 1.268217537591157e-09, global = -2.51414368204567e-10, cumulative = -1.506725124054067e-08
DILUPBiCG:  Solving for p, Initial residual = 0.000118066758188312, Final residual = 2.954961509563895e-13, No Iterations 4
diagonal:  Solving for rho, Initial residual = 0, Final residual = 0, No Iterations 0
time step continuity errors : sum local = 1.800137331175668e-16, global = -5.704822617339315e-17, cumulative = -1.50672512975889e-08
DILUPBiCG:  Solving for k, Initial residual = 0.009102042934216275, Final residual = 6.502738301637244e-14, No Iterations 5
ExecutionTime = 1762.64 s  ClockTime = 9835 s

ORIG_COMP_STEP = 25.73716859599881
ORIG_IO_STEP = 56.27184400400074
Courant Number mean: 2.222429032183071e-06 max: 0.1996626183275441
deltaT = 2.744913715964349e-06
Time = 0.000173311

PIMPLE: iteration 1
diagonal:  Solving for rho, Initial residual = 0, Final residual = 0, No Iterations 0
DILUPBiCG:  Solving for Ux, Initial residual = 0.01620062090651498, Final residual = 6.348805049115395e-14, No Iterations 5
DILUPBiCG:  Solving for Uy, Initial residual = 0.01620039866475464, Final residual = 1.520394406046045e-13, No Iterations 5
DILUPBiCG:  Solving for Uz, Initial residual = 0.008007608378013372, Final residual = 1.979992797137096e-13, No Iterations 5
DILUPBiCG:  Solving for e, Initial residual = 0.01123308260978334, Final residual = 9.878368841424973e-13, No Iterations 4
DILUPBiCG:  Solving for p, Initial residual = 0.01462847417124585, Final residual = 3.056326941136689e-05, No Iterations 1
diagonal:  Solving for rho, Initial residual = 0, Final residual = 0, No Iterations 0
time step continuity errors : sum local = 1.267815493757117e-09, global = -2.449529815461494e-10, cumulative = -1.531220427913504e-08
DILUPBiCG:  Solving for p, Initial residual = 0.0001021945662322458, Final residual = 2.768294070825432e-15, No Iterations 5
diagonal:  Solving for rho, Initial residual = 0, Final residual = 0, No Iterations 0
time step continuity errors : sum local = 1.668484779269993e-16, global = -5.535791377163314e-17, cumulative = -1.531220433449296e-08
DILUPBiCG:  Solving for k, Initial residual = 0.009159115248881642, Final residual = 8.068569958079265e-13, No Iterations 5
ExecutionTime = 1776.14 s  ClockTime = 9910 s

ORIG_COMP_STEP = 13.06259505799972
ORIG_IO_STEP = 46.58892990999993
Courant Number mean: 2.280201788822699e-06 max: 0.1995671436128724
deltaT = 2.750867368517354e-06
Time = 0.000176062

PIMPLE: iteration 1
diagonal:  Solving for rho, Initial residual = 0, Final residual = 0, No Iterations 0
DILUPBiCG:  Solving for Ux, Initial residual = 0.01607258864485862, Final residual = 5.705658834095442e-14, No Iterations 5
DILUPBiCG:  Solving for Uy, Initial residual = 0.01607213621678422, Final residual = 1.559234946714836e-13, No Iterations 5
DILUPBiCG:  Solving for Uz, Initial residual = 0.007961296175919305, Final residual = 1.966978622452584e-13, No Iterations 5
DILUPBiCG:  Solving for e, Initial residual = 0.0111688177455937, Final residual = 6.682490438333197e-13, No Iterations 4
DILUPBiCG:  Solving for p, Initial residual = 0.01457628788208327, Final residual = 3.02738479732116e-05, No Iterations 1
diagonal:  Solving for rho, Initial residual = 0, Final residual = 0, No Iterations 0
time step continuity errors : sum local = 1.277863282475149e-09, global = -2.512251729358588e-10, cumulative = -1.556342950742882e-08
DILUPBiCG:  Solving for p, Initial residual = 0.0001067962705636892, Final residual = 4.138958976761899e-13, No Iterations 4
diagonal:  Solving for rho, Initial residual = 0, Final residual = 0, No Iterations 0
time step continuity errors : sum local = 1.791318454593814e-16, global = -6.265707495697445e-18, cumulative = -1.556342951369453e-08
DILUPBiCG:  Solving for k, Initial residual = 0.009186736627727727, Final residual = 1.866613142937521e-14, No Iterations 5
ExecutionTime = 1837.2 s  ClockTime = 10027 s

ORIG_COMP_STEP = 60.97741959500127
ORIG_IO_STEP = 62.34247880099974
Courant Number mean: 2.340001924988521e-06 max: 0.1996193957336869
deltaT = 2.756112309033622e-06
Time = 0.000178818

PIMPLE: iteration 1
diagonal:  Solving for rho, Initial residual = 0, Final residual = 0, No Iterations 0
DILUPBiCG:  Solving for Ux, Initial residual = 0.01592520185178956, Final residual = 5.292987661493094e-14, No Iterations 5
DILUPBiCG:  Solving for Uy, Initial residual = 0.0159247537570634, Final residual = 1.607859130966904e-13, No Iterations 5
DILUPBiCG:  Solving for Uz, Initial residual = 0.007904255500068801, Final residual = 1.923176730885222e-13, No Iterations 5
DILUPBiCG:  Solving for e, Initial residual = 0.01117065053681683, Final residual = 2.43235681035277e-13, No Iterations 4
DILUPBiCG:  Solving for p, Initial residual = 0.01458060426903082, Final residual = 3.004973319911809e-05, No Iterations 1
diagonal:  Solving for rho, Initial residual = 0, Final residual = 0, No Iterations 0
time step continuity errors : sum local = 1.290419431751209e-09, global = -2.451068040559967e-10, cumulative = -1.580853631775052e-08
DILUPBiCG:  Solving for p, Initial residual = 0.0001007812364654438, Final residual = 7.210022980070541e-13, No Iterations 4
diagonal:  Solving for rho, Initial residual = 0, Final residual = 0, No Iterations 0
time step continuity errors : sum local = 1.927180539740909e-16, global = -2.540436342844209e-17, cumulative = -1.580853634315489e-08
DILUPBiCG:  Solving for k, Initial residual = 0.009189286156427657, Final residual = 2.935393133667815e-13, No Iterations 5
ExecutionTime = 1845.67 s  ClockTime = 10109 s

ORIG_COMP_STEP = 7.915064466000331
ORIG_IO_STEP = 85.24823518800076
Courant Number mean: 2.399604657794658e-06 max: 0.1994694544168238
deltaT = 2.763442971347647e-06
Time = 0.000181582

PIMPLE: iteration 1
diagonal:  Solving for rho, Initial residual = 0, Final residual = 0, No Iterations 0
DILUPBiCG:  Solving for Ux, Initial residual = 0.01578001260483506, Final residual = 5.047575516997641e-14, No Iterations 5
DILUPBiCG:  Solving for Uy, Initial residual = 0.01577963603959467, Final residual = 1.702641693933989e-13, No Iterations 5
DILUPBiCG:  Solving for Uz, Initial residual = 0.007825787631773615, Final residual = 1.870175537695489e-13, No Iterations 5
DILUPBiCG:  Solving for e, Initial residual = 0.01124102077498944, Final residual = 4.494370224059403e-13, No Iterations 4
DILUPBiCG:  Solving for p, Initial residual = 0.01458675653233978, Final residual = 3.012821455456066e-05, No Iterations 1
diagonal:  Solving for rho, Initial residual = 0, Final residual = 0, No Iterations 0
time step continuity errors : sum local = 1.31594909699899e-09, global = -2.46341667677416e-10, cumulative = -1.605487801083231e-08
DILUPBiCG:  Solving for p, Initial residual = 0.0001052762258585822, Final residual = 5.285708066105791e-15, No Iterations 5
diagonal:  Solving for rho, Initial residual = 0, Final residual = 0, No Iterations 0
time step continuity errors : sum local = 1.921931170662951e-16, global = 1.264023889720951e-16, cumulative = -1.605487788442992e-08
DILUPBiCG:  Solving for k, Initial residual = 0.009176962733622921, Final residual = 9.219154923799783e-13, No Iterations 4
ExecutionTime = 1874.93 s  ClockTime = 10234 s

ORIG_COMP_STEP = 28.67536597700018
ORIG_IO_STEP = 94.61824159400021
Courant Number mean: 2.461701795255853e-06 max: 0.1990646855715368
deltaT = 2.776427133133617e-06
Time = 0.000184358

PIMPLE: iteration 1
diagonal:  Solving for rho, Initial residual = 0, Final residual = 0, No Iterations 0
DILUPBiCG:  Solving for Ux, Initial residual = 0.01565920472641462, Final residual = 4.931176748537941e-14, No Iterations 5
DILUPBiCG:  Solving for Uy, Initial residual = 0.0156589246073063, Final residual = 1.848321613337476e-13, No Iterations 5
DILUPBiCG:  Solving for Uz, Initial residual = 0.007787545148258483, Final residual = 1.84549313080976e-13, No Iterations 5
DILUPBiCG:  Solving for e, Initial residual = 0.0112152000854316, Final residual = 4.414329433320918e-13, No Iterations 4
DILUPBiCG:  Solving for p, Initial residual = 0.01451942451798947, Final residual = 3.031372349275549e-05, No Iterations 1
diagonal:  Solving for rho, Initial residual = 0, Final residual = 0, No Iterations 0
time step continuity errors : sum local = 1.346462073462186e-09, global = -2.564559047828171e-10, cumulative = -1.631133378921273e-08
DILUPBiCG:  Solving for p, Initial residual = 0.0001032047637964229, Final residual = 9.409687612534225e-13, No Iterations 4
diagonal:  Solving for rho, Initial residual = 0, Final residual = 0, No Iterations 0
time step continuity errors : sum local = 2.037926451732096e-16, global = 3.089043793481985e-17, cumulative = -1.63113337583223e-08
DILUPBiCG:  Solving for k, Initial residual = 0.009160854018512693, Final residual = 7.261262185964078e-13, No Iterations 4
ExecutionTime = 1887.51 s  ClockTime = 10346 s

ORIG_COMP_STEP = 11.8196332259995
ORIG_IO_STEP = 66.59670330900008
Courant Number mean: 2.530058286861974e-06 max: 0.1984562870852453
deltaT = 2.798023860983564e-06
Time = 0.000187156

PIMPLE: iteration 1
diagonal:  Solving for rho, Initial residual = 0, Final residual = 0, No Iterations 0
DILUPBiCG:  Solving for Ux, Initial residual = 0.01562101780948589, Final residual = 4.962087065181732e-14, No Iterations 5
DILUPBiCG:  Solving for Uy, Initial residual = 0.01562076021297067, Final residual = 1.99709213442172e-13, No Iterations 5
DILUPBiCG:  Solving for Uz, Initial residual = 0.007790594024084047, Final residual = 1.858101810451393e-13, No Iterations 5
DILUPBiCG:  Solving for e, Initial residual = 0.01124758216922658, Final residual = 1.79318170127624e-14, No Iterations 5
DILUPBiCG:  Solving for p, Initial residual = 0.01462926849731199, Final residual = 3.095670636304224e-05, No Iterations 1
diagonal:  Solving for rho, Initial residual = 0, Final residual = 0, No Iterations 0
time step continuity errors : sum local = 1.398113705215135e-09, global = -2.617247998995797e-10, cumulative = -1.657305855822188e-08
DILUPBiCG:  Solving for p, Initial residual = 0.0001026551157292697, Final residual = 2.066076387515427e-14, No Iterations 5
diagonal:  Solving for rho, Initial residual = 0, Final residual = 0, No Iterations 0
time step continuity errors : sum local = 1.793810866370208e-16, global = -8.582829772571755e-17, cumulative = -1.657305864405017e-08
DILUPBiCG:  Solving for k, Initial residual = 0.009180018602902514, Final residual = 7.048670260981578e-13, No Iterations 4
ExecutionTime = 1908.8 s  ClockTime = 10439 s

ORIG_COMP_STEP = 20.81791703699855
ORIG_IO_STEP = 79.94896275600149
Courant Number mean: 2.607830926320146e-06 max: 0.200741640465616
deltaT = 2.787686555209565e-06
Time = 0.000189944

PIMPLE: iteration 1
diagonal:  Solving for rho, Initial residual = 0, Final residual = 0, No Iterations 0
DILUPBiCG:  Solving for Ux, Initial residual = 0.01544916905305179, Final residual = 4.722525904257571e-14, No Iterations 5
DILUPBiCG:  Solving for Uy, Initial residual = 0.01544890109800075, Final residual = 1.96315961984122e-13, No Iterations 5
DILUPBiCG:  Solving for Uz, Initial residual = 0.007699596100524147, Final residual = 1.767330716796997e-13, No Iterations 5
DILUPBiCG:  Solving for e, Initial residual = 0.01123281731165939, Final residual = 1.789017442010692e-14, No Iterations 5
DILUPBiCG:  Solving for p, Initial residual = 0.01452748944205215, Final residual = 3.006084197735052e-05, No Iterations 1
diagonal:  Solving for rho, Initial residual = 0, Final residual = 0, No Iterations 0
time step continuity errors : sum local = 1.380232435644135e-09, global = -2.40870849739338e-10, cumulative = -1.681392949378951e-08
DILUPBiCG:  Solving for p, Initial residual = 0.0001045077551737588, Final residual = 6.468616923219392e-13, No Iterations 4
diagonal:  Solving for rho, Initial residual = 0, Final residual = 0, No Iterations 0
time step continuity errors : sum local = 1.986768757164648e-16, global = 5.1098494229139e-17, cumulative = -1.681392944269102e-08
DILUPBiCG:  Solving for k, Initial residual = 0.009120779140418627, Final residual = 2.979366519509781e-15, No Iterations 5
ExecutionTime = 1921.27 s  ClockTime = 10539 s

ORIG_COMP_STEP = 11.81701432000045
ORIG_IO_STEP = 88.76071242100079
Courant Number mean: 2.656197269047791e-06 max: 0.2018831460086833
deltaT = 2.761683290877237e-06
Time = 0.000192706

PIMPLE: iteration 1
diagonal:  Solving for rho, Initial residual = 0, Final residual = 0, No Iterations 0
DILUPBiCG:  Solving for Ux, Initial residual = 0.01520597856067356, Final residual = 4.374466413560283e-14, No Iterations 5
DILUPBiCG:  Solving for Uy, Initial residual = 0.01520583078559453, Final residual = 1.79739265419938e-13, No Iterations 5
DILUPBiCG:  Solving for Uz, Initial residual = 0.007563882154226024, Final residual = 1.609818407027202e-13, No Iterations 5
DILUPBiCG:  Solving for e, Initial residual = 0.01109727343120816, Final residual = 1.482803766501834e-14, No Iterations 5
DILUPBiCG:  Solving for p, Initial residual = 0.01439516460851079, Final residual = 2.883999055631074e-05, No Iterations 1
diagonal:  Solving for rho, Initial residual = 0, Final residual = 0, No Iterations 0
time step continuity errors : sum local = 1.345766586541647e-09, global = -2.294002392241595e-10, cumulative = -1.704332968191518e-08
DILUPBiCG:  Solving for p, Initial residual = 9.668245806324195e-05, Final residual = 4.611475560842444e-13, No Iterations 4
diagonal:  Solving for rho, Initial residual = 0, Final residual = 0, No Iterations 0
time step continuity errors : sum local = 1.955038274697043e-16, global = 7.346650806778297e-17, cumulative = -1.704332960844867e-08
DILUPBiCG:  Solving for k, Initial residual = 0.00904182443813497, Final residual = 6.037821934819892e-15, No Iterations 5
ExecutionTime = 1931.47 s  ClockTime = 10651 s

ORIG_COMP_STEP = 9.435462874000223
ORIG_IO_STEP = 83.37119844199879
Courant Number mean: 2.687766963615251e-06 max: 0.2016211606968346
deltaT = 2.739477623610943e-06
Time = 0.000195445

PIMPLE: iteration 1
diagonal:  Solving for rho, Initial residual = 0, Final residual = 0, No Iterations 0
DILUPBiCG:  Solving for Ux, Initial residual = 0.01496793812768687, Final residual = 4.109919342982331e-14, No Iterations 5
DILUPBiCG:  Solving for Uy, Initial residual = 0.01496787287590846, Final residual = 1.639657391312749e-13, No Iterations 5
DILUPBiCG:  Solving for Uz, Initial residual = 0.007421641803291775, Final residual = 1.462588593578398e-13, No Iterations 5
DILUPBiCG:  Solving for e, Initial residual = 0.01099216091026262, Final residual = 8.73890523220893e-15, No Iterations 5
DILUPBiCG:  Solving for p, Initial residual = 0.01416229001961952, Final residual = 2.729158154549701e-05, No Iterations 1
diagonal:  Solving for rho, Initial residual = 0, Final residual = 0, No Iterations 0
time step continuity errors : sum local = 1.294029466836816e-09, global = -2.157696739098304e-10, cumulative = -1.72590992823585e-08
DILUPBiCG:  Solving for p, Initial residual = 0.0001019772883929008, Final residual = 3.204960917619238e-15, No Iterations 5
diagonal:  Solving for rho, Initial residual = 0, Final residual = 0, No Iterations 0
time step continuity errors : sum local = 1.769278310658634e-16, global = -8.690713814308333e-17, cumulative = -1.725909936926564e-08
DILUPBiCG:  Solving for k, Initial residual = 0.008987176892375538, Final residual = 5.96647081812452e-14, No Iterations 5
ExecutionTime = 1955.99 s  ClockTime = 10765 s

ORIG_COMP_STEP = 23.93647904000136
ORIG_IO_STEP = 82.42792619100146
Courant Number mean: 2.721316005663279e-06 max: 0.2007823763963096
deltaT = 2.72880286883713e-06
Time = 0.000198174

PIMPLE: iteration 1
diagonal:  Solving for rho, Initial residual = 0, Final residual = 0, No Iterations 0
DILUPBiCG:  Solving for Ux, Initial residual = 0.01477903697504926, Final residual = 3.975101541355264e-14, No Iterations 5
DILUPBiCG:  Solving for Uy, Initial residual = 0.01477914672590933, Final residual = 1.527714481822916e-13, No Iterations 5
DILUPBiCG:  Solving for Uz, Initial residual = 0.007325202381932411, Final residual = 1.362975275339633e-13, No Iterations 5
DILUPBiCG:  Solving for e, Initial residual = 0.0108772706803091, Final residual = 6.65053905378092e-15, No Iterations 5
DILUPBiCG:  Solving for p, Initial residual = 0.01402136411407182, Final residual = 2.652261901665783e-05, No Iterations 1
diagonal:  Solving for rho, Initial residual = 0, Final residual = 0, No Iterations 0
time step continuity errors : sum local = 1.277762857665917e-09, global = -2.146345592927486e-10, cumulative = -1.747373392855839e-08
DILUPBiCG:  Solving for p, Initial residual = 9.451735870766741e-05, Final residual = 6.24823907370614e-15, No Iterations 5
diagonal:  Solving for rho, Initial residual = 0, Final residual = 0, No Iterations 0
time step continuity errors : sum local = 1.642500681688421e-16, global = 4.993764138106948e-17, cumulative = -1.747373387862075e-08
DILUPBiCG:  Solving for k, Initial residual = 0.008971329462622473, Final residual = 6.190748160049239e-14, No Iterations 5
ExecutionTime = 1972.36 s  ClockTime = 10876 s

ORIG_COMP_STEP = 15.70599860699986
ORIG_IO_STEP = 89.98491142100102
Courant Number mean: 2.766174069762832e-06 max: 0.2003279781414902
deltaT = 2.724335256765566e-06
Time = 0.000200898

PIMPLE: iteration 1
diagonal:  Solving for rho, Initial residual = 0, Final residual = 0, No Iterations 0
DILUPBiCG:  Solving for Ux, Initial residual = 0.01464989258777656, Final residual = 3.906344029645536e-14, No Iterations 5
DILUPBiCG:  Solving for Uy, Initial residual = 0.01465008602438743, Final residual = 1.445798991119768e-13, No Iterations 5
DILUPBiCG:  Solving for Uz, Initial residual = 0.007273372702943919, Final residual = 1.303094157692826e-13, No Iterations 5
DILUPBiCG:  Solving for e, Initial residual = 0.0108547619523409, Final residual = 6.697553386098305e-15, No Iterations 5
DILUPBiCG:  Solving for p, Initial residual = 0.0139547529203517, Final residual = 2.607488712957593e-05, No Iterations 1
diagonal:  Solving for rho, Initial residual = 0, Final residual = 0, No Iterations 0
time step continuity errors : sum local = 1.276259399104494e-09, global = -2.122659892842485e-10, cumulative = -1.7685999867905e-08
DILUPBiCG:  Solving for p, Initial residual = 9.405732597073853e-05, Final residual = 8.405994766463757e-15, No Iterations 5
diagonal:  Solving for rho, Initial residual = 0, Final residual = 0, No Iterations 0
time step continuity errors : sum local = 1.656022253667883e-16, global = -5.948550233755848e-17, cumulative = -1.76859999273905e-08
DILUPBiCG:  Solving for k, Initial residual = 0.008982679973972891, Final residual = 1.001563901099775e-13, No Iterations 5
ExecutionTime = 1979.26 s  ClockTime = 10985 s

ORIG_COMP_STEP = 6.087461129000076
ORIG_IO_STEP = 95.90618371699929
End

ORIG_IO_TIME = 7328.643018973749
ORIG_COMP_TIME = 833.7138019764062
Finalising parallel run
